1

   Abaqus 6.12-1                                  Date 16-déc.-2016   Time 10:23:19
   For use by  under license from Dassault Systemes or its subsidiary.

                                                                                 
                                                                                 
 STEP    1     INCREMENT     1     STEP TIME    0.00    


                        S T E P       1     S T A T I C   A N A L Y S I S


                                                                                          

     AUTOMATIC TIME CONTROL WITH -
          A SUGGESTED INITIAL TIME INCREMENT OF                1.000E-02
          AND A TOTAL TIME PERIOD OF                            1.00    
          THE MINIMUM TIME INCREMENT ALLOWED IS                1.000E-06
          THE MAXIMUM TIME INCREMENT ALLOWED IS                5.000E-02

     LINEAR EQUATION SOLVER TYPE         DIRECT SPARSE

 CONVERGENCE TOLERANCE PARAMETERS FOR FORCE    
     CRITERION FOR RESIDUAL FORCE     FOR A NONLINEAR PROBLEM          5.000E-03
     CRITERION FOR DISP.    CORRECTION IN A NONLINEAR PROBLEM          1.000E-02
     INITIAL VALUE OF TIME AVERAGE FORCE                               1.000E-02
     AVERAGE FORCE     IS TIME AVERAGE FORCE    
     ALTERNATE CRIT. FOR RESIDUAL FORCE     FOR A NONLINEAR PROBLEM    2.000E-02
     CRITERION FOR ZERO FORCE     RELATIVE TO TIME AVRG. FORCE         1.000E-05
     CRITERION FOR RESIDUAL FORCE     WHEN THERE IS ZERO FLUX          1.000E-05
     CRITERION FOR DISP.    CORRECTION WHEN THERE IS ZERO FLUX         1.000E-03
     CRITERION FOR RESIDUAL FORCE     FOR A LINEAR INCREMENT           1.000E-08
     FIELD CONVERSION RATIO                                             1.00    
     CRITERION FOR ZERO FORCE     REL. TO TIME AVRG. MAX. FORCE        1.000E-05
     CRITERION FOR ZERO DISP.    RELATIVE TO CHARACTERISTIC LENGTH     1.000E-08

 CONVERGENCE TOLERANCE PARAMETERS FOR MOMENT   
     CRITERION FOR RESIDUAL MOMENT    FOR A NONLINEAR PROBLEM          5.000E-03
     CRITERION FOR ROTATION CORRECTION IN A NONLINEAR PROBLEM          1.000E-02
     INITIAL VALUE OF TIME AVERAGE MOMENT                              1.000E-02
     AVERAGE MOMENT    IS TIME AVERAGE MOMENT   
     ALTERNATE CRIT. FOR RESIDUAL MOMENT    FOR A NONLINEAR PROBLEM    2.000E-02
     CRITERION FOR ZERO MOMENT    RELATIVE TO TIME AVRG. MOMENT        1.000E-05
     CRITERION FOR RESIDUAL MOMENT    WHEN THERE IS ZERO FLUX          1.000E-05
     CRITERION FOR ROTATION CORRECTION WHEN THERE IS ZERO FLUX         1.000E-03
     CRITERION FOR RESIDUAL MOMENT    FOR A LINEAR INCREMENT           1.000E-08
     FIELD CONVERSION RATIO                                             1.00    
     CRITERION FOR ZERO MOMENT    REL. TO TIME AVRG. MAX. MOMENT       1.000E-05

     VOLUMETRIC STRAIN COMPATIBILITY TOLERANCE FOR HYBRID SOLIDS       1.000E-05
     AXIAL STRAIN COMPATIBILITY TOLERANCE FOR HYBRID BEAMS             1.000E-05
     TRANS. SHEAR STRAIN COMPATIBILITY TOLERANCE FOR HYBRID BEAMS      1.000E-05
     SOFT CONTACT CONSTRAINT COMPATIBILITY TOLERANCE FOR P>P0          5.000E-03
     SOFT CONTACT CONSTRAINT COMPATIBILITY TOLERANCE FOR P=0.0         0.100    
     CONTACT FORCE ERROR TOLERANCE FOR CONVERT SDI=YES                 1.00    
     DISPLACEMENT COMPATIBILITY TOLERANCE FOR DCOUP ELEMENTS           1.000E-05
     ROTATION COMPATIBILITY TOLERANCE FOR DCOUP ELEMENTS               1.000E-05

 EQUILIBRIUM WILL BE CHECKED FOR SEVERE DISCONTINUITY ITERATIONS

 TIME INCREMENTATION CONTROL PARAMETERS:
     FIRST EQUILIBRIUM ITERATION FOR CONSECUTIVE DIVERGENCE CHECK              4
     EQUILIBRIUM ITERATION AT WHICH LOG. CONVERGENCE RATE CHECK BEGINS         8
     EQUILIBRIUM ITERATION AFTER WHICH ALTERNATE RESIDUAL IS USED              9
     MAXIMUM EQUILIBRIUM ITERATIONS ALLOWED                                   16
     EQUILIBRIUM ITERATION COUNT FOR CUT-BACK IN NEXT INCREMENT               10
     MAXIMUM EQUILIB. ITERS IN TWO INCREMENTS FOR TIME INCREMENT INCREASE      4
     MAXIMUM ITERATIONS FOR SEVERE DISCONTINUITIES                            50
     MAXIMUM CUT-BACKS ALLOWED IN AN INCREMENT                                 5
     MAXIMUM DISCON. ITERS IN TWO INCREMENTS FOR TIME INCREMENT INCREASE      50
     MAXIMUM CONTACT AUGMENTATIONS FOR *SURFACE BEHAVIOR,AUGMENTED LAGRANGE   50
     CUT-BACK FACTOR AFTER DIVERGENCE                                 0.2500    
     CUT-BACK FACTOR FOR TOO SLOW CONVERGENCE                         0.5000    
     CUT-BACK FACTOR AFTER TOO MANY EQUILIBRIUM ITERATIONS            0.7500    
     CUT-BACK FACTOR AFTER TOO MANY SEVERE DISCONTINUITY ITERATIONS   0.2500    
     CUT-BACK FACTOR AFTER PROBLEMS IN ELEMENT ASSEMBLY               0.2500    
     INCREASE FACTOR AFTER TWO INCREMENTS THAT CONVERGE QUICKLY        1.500    
     MAX. TIME INCREMENT INCREASE FACTOR ALLOWED                       1.500    
     MAX. TIME INCREMENT INCREASE FACTOR ALLOWED (DYNAMICS)            1.250    
     MAX. TIME INCREMENT INCREASE FACTOR ALLOWED (DIFFUSION)           2.000    
     MINIMUM TIME INCREMENT RATIO FOR EXTRAPOLATION TO OCCUR          0.1000    
     MAX. RATIO OF TIME INCREMENT TO STABILITY LIMIT                   1.000    
     FRACTION OF STABILITY LIMIT FOR NEW TIME INCREMENT               0.9500    
     TIME INCREMENT INCREASE FACTOR BEFORE A TIME POINT                1.000    
     GLOBAL STABILIZATION CONTROL IS NOT USED

          PRINT OF INCREMENT NUMBER, TIME, ETC., EVERY    1  INCREMENTS

     THE MAXIMUM NUMBER OF INCREMENTS IN THIS STEP IS                     200

          LARGE DISPLACEMENT THEORY WILL BE USED

     LINEAR EXTRAPOLATION WILL BE USED

     CHARACTERISTIC ELEMENT LENGTH     5.694E-02

     DETAILS REGARDING ACTUAL SOLUTION WAVEFRONT REQUESTED

     DETAILED OUTPUT OF DIAGNOSTICS TO DATABASE REQUESTED

     PRINT OF INCREMENT NUMBER, TIME, ETC., TO THE MESSAGE FILE EVERY     1  INCREMENTS

     EQUATIONS ARE BEING REORDERED TO MINIMIZE WAVEFRONT

     COLLECTING MODEL CONSTRAINT INFORMATION FOR OVERCONSTRAINT CHECKS

     COLLECTING STEP CONSTRAINT INFORMATION FOR OVERCONSTRAINT CHECKS


  INCREMENT     1 STARTS. ATTEMPT NUMBER  1, TIME INCREMENT  1.000E-02

  NUMBER OF EQUATIONS =     1256     NUMBER OF FLOATING PT. OPERATIONS =  8.20E+06

     CHECK POINT   START OF SOLVER    

     CHECK POINT  END OF SOLVER       

       ELAPSED USER TIME (SEC)      =   0.0000    
       ELAPSED SYSTEM TIME (SEC)    =   0.0000    
       ELAPSED TOTAL CPU TIME (SEC) =   0.0000    
       ELAPSED WALLCLOCK TIME (SEC) =          0

               CONVERGENCE CHECKS FOR EQUILIBRIUM ITERATION     1


 AVERAGE FORCE                       9.27       TIME AVG. FORCE        9.27    
 LARGEST RESIDUAL FORCE              46.4       AT NODE        212   DOF  3
   INSTANCE: Instance A                                                                      
 LARGEST INCREMENT OF DISP.         1.836E-03   AT NODE        114   DOF  3
   INSTANCE: Instance A                                                                      
 LARGEST CORRECTION TO DISP.        1.836E-03   AT NODE        114   DOF  3
   INSTANCE: Instance A                                                                      
          FORCE     EQUILIBRIUM NOT ACHIEVED WITHIN TOLERANCE.

 AVERAGE MOMENT                     8.143E-02   TIME AVG. MOMENT      8.143E-02
 LARGEST RESIDUAL MOMENT            0.148       AT NODE        173   DOF  4
   INSTANCE: Instance A                                                                      
 LARGEST INCREMENT OF ROTATION     -8.130E-03   AT NODE        191   DOF  6
   INSTANCE: Instance A                                                                      
 LARGEST CORRECTION TO ROTATION    -8.130E-03   AT NODE        191   DOF  6
   INSTANCE: Instance A                                                                      
          MOMENT    EQUILIBRIUM NOT ACHIEVED WITHIN TOLERANCE.

 COMPATIBILITY ERRORS:
    TYPE                NUMBER EXCEEDING TOLERANCE  MAXIMUM ERROR        IN ELEMENT
 BEAM AXIAL                          0                7.695E-07                181
   INSTANCE: Instance A                                                                      

  NUMBER OF EQUATIONS =     1256     NUMBER OF FLOATING PT. OPERATIONS =  8.20E+06

     CHECK POINT   START OF SOLVER    

     CHECK POINT  END OF SOLVER       

       ELAPSED USER TIME (SEC)      =   0.0000    
       ELAPSED SYSTEM TIME (SEC)    =   0.0000    
       ELAPSED TOTAL CPU TIME (SEC) =   0.0000    
       ELAPSED WALLCLOCK TIME (SEC) =          0

               CONVERGENCE CHECKS FOR EQUILIBRIUM ITERATION     2


 AVERAGE FORCE                       7.88       TIME AVG. FORCE        7.88    
 LARGEST RESIDUAL FORCE            -0.349       AT NODE        114   DOF  2
   INSTANCE: Instance A                                                                      
 LARGEST INCREMENT OF DISP.         1.551E-03   AT NODE        114   DOF  3
   INSTANCE: Instance A                                                                      
 LARGEST CORRECTION TO DISP.       -2.855E-04   AT NODE        114   DOF  3
   INSTANCE: Instance A                                                                      
          FORCE     EQUILIBRIUM NOT ACHIEVED WITHIN TOLERANCE.

 AVERAGE MOMENT                     7.929E-02   TIME AVG. MOMENT      7.929E-02
 LARGEST RESIDUAL MOMENT           -1.735E-03   AT NODE        189   DOF  5
   INSTANCE: Instance A                                                                      
 LARGEST INCREMENT OF ROTATION      8.103E-03   AT NODE          1   DOF  6
   INSTANCE: Instance A                                                                      
 LARGEST CORRECTION TO ROTATION    -4.636E-04   AT NODE        118   DOF  4
   INSTANCE: Instance A                                                                      
          MOMENT    EQUILIBRIUM NOT ACHIEVED WITHIN TOLERANCE.

 COMPATIBILITY ERRORS:
    TYPE                NUMBER EXCEEDING TOLERANCE  MAXIMUM ERROR        IN ELEMENT
 BEAM AXIAL                          0                1.318E-08                182
   INSTANCE: Instance A                                                                      

  NUMBER OF EQUATIONS =     1256     NUMBER OF FLOATING PT. OPERATIONS =  8.20E+06

     CHECK POINT   START OF SOLVER    

     CHECK POINT  END OF SOLVER       

       ELAPSED USER TIME (SEC)      =   0.0000    
       ELAPSED SYSTEM TIME (SEC)    =   0.0000    
       ELAPSED TOTAL CPU TIME (SEC) =   0.0000    
       ELAPSED WALLCLOCK TIME (SEC) =          0

               CONVERGENCE CHECKS FOR EQUILIBRIUM ITERATION     3


 AVERAGE FORCE                       7.87       TIME AVG. FORCE        7.87    
 LARGEST RESIDUAL FORCE            -9.475E-03   AT NODE        114   DOF  2
   INSTANCE: Instance A                                                                      
 LARGEST INCREMENT OF DISP.         1.504E-03   AT NODE        114   DOF  3
   INSTANCE: Instance A                                                                      
 LARGEST CORRECTION TO DISP.       -4.689E-05   AT NODE        114   DOF  3
   INSTANCE: Instance A                                                                      
 ESTIMATE OF DISP.    CORRECTION   -1.274E-06
 FORCE     EQUILIB. ACCEPTED BASED ON SMALL RESIDUAL AND ESTIMATED CORRECTION

 AVERAGE MOMENT                     7.921E-02   TIME AVG. MOMENT      7.921E-02
 LARGEST RESIDUAL MOMENT            4.796E-05   AT NODE         37   DOF  5
   INSTANCE: Instance A                                                                      
 LARGEST INCREMENT OF ROTATION     -8.106E-03   AT NODE        191   DOF  6
   INSTANCE: Instance A                                                                      
 LARGEST CORRECTION TO ROTATION    -7.555E-05   AT NODE        194   DOF  4
   INSTANCE: Instance A                                                                      
          THE MOMENT    EQUILIBRIUM EQUATIONS HAVE CONVERGED

 COMPATIBILITY ERRORS:
    TYPE                NUMBER EXCEEDING TOLERANCE  MAXIMUM ERROR        IN ELEMENT
 BEAM AXIAL                          0                4.058E-10                182
   INSTANCE: Instance A                                                                      

 ITERATION SUMMARY FOR THE INCREMENT:   3 TOTAL ITERATIONS, OF WHICH
   0 ARE SEVERE DISCONTINUITY ITERATIONS AND  3 ARE EQUILIBRIUM ITERATIONS.

 TIME INCREMENT COMPLETED  1.000E-02,  FRACTION OF STEP COMPLETED  1.000E-02
 STEP TIME COMPLETED       1.000E-02,  TOTAL TIME COMPLETED        1.000E-02


  INCREMENT     2 STARTS. ATTEMPT NUMBER  1, TIME INCREMENT  1.000E-02

  NUMBER OF EQUATIONS =     1256     NUMBER OF FLOATING PT. OPERATIONS =  8.20E+06

     CHECK POINT   START OF SOLVER    

     CHECK POINT  END OF SOLVER       

       ELAPSED USER TIME (SEC)      =  0.10000    
       ELAPSED SYSTEM TIME (SEC)    =   0.0000    
       ELAPSED TOTAL CPU TIME (SEC) =  0.10000    
       ELAPSED WALLCLOCK TIME (SEC) =          0

               CONVERGENCE CHECKS FOR EQUILIBRIUM ITERATION     1


 AVERAGE FORCE                       15.6       TIME AVG. FORCE        11.7    
 LARGEST RESIDUAL FORCE             7.508E-03   AT NODE         20   DOF  3
   INSTANCE: Instance A                                                                      
 LARGEST INCREMENT OF DISP.         1.483E-03   AT NODE        114   DOF  3
   INSTANCE: Instance A                                                                      
 LARGEST CORRECTION TO DISP.       -2.052E-05   AT NODE        114   DOF  3
   INSTANCE: Instance A                                                                      
 ESTIMATE OF DISP.    CORRECTION   -1.490E-09
 FORCE     EQUILIB. ACCEPTED BASED ON SMALL RESIDUAL AND ESTIMATED CORRECTION

 AVERAGE MOMENT                     0.158       TIME AVG. MOMENT      0.119    
 LARGEST RESIDUAL MOMENT           -2.508E-04   AT NODE         20   DOF  6
   INSTANCE: Instance A                                                                      
 LARGEST INCREMENT OF ROTATION      8.046E-03   AT NODE          1   DOF  6
   INSTANCE: Instance A                                                                      
 LARGEST CORRECTION TO ROTATION     9.646E-05   AT NODE        172   DOF  6
   INSTANCE: Instance A                                                                      
 ESTIMATE OF ROTATION CORRECTION   -7.199E-08
 MOMENT    EQUILIB. ACCEPTED BASED ON SMALL RESIDUAL AND ESTIMATED CORRECTION

 COMPATIBILITY ERRORS:
    TYPE                NUMBER EXCEEDING TOLERANCE  MAXIMUM ERROR        IN ELEMENT
 BEAM AXIAL                          0                3.307E-10                181
   INSTANCE: Instance A                                                                      
          TIME INCREMENT MAY NOW INCREASE TO    1.500E-02

 ITERATION SUMMARY FOR THE INCREMENT:   1 TOTAL ITERATIONS, OF WHICH
   0 ARE SEVERE DISCONTINUITY ITERATIONS AND  1 ARE EQUILIBRIUM ITERATIONS.

 TIME INCREMENT COMPLETED  1.000E-02,  FRACTION OF STEP COMPLETED  2.000E-02
 STEP TIME COMPLETED       2.000E-02,  TOTAL TIME COMPLETED        2.000E-02


  INCREMENT     3 STARTS. ATTEMPT NUMBER  1, TIME INCREMENT  1.500E-02

  NUMBER OF EQUATIONS =     1256     NUMBER OF FLOATING PT. OPERATIONS =  8.20E+06

     CHECK POINT   START OF SOLVER    

     CHECK POINT  END OF SOLVER       

       ELAPSED USER TIME (SEC)      =   0.0000    
       ELAPSED SYSTEM TIME (SEC)    =   0.0000    
       ELAPSED TOTAL CPU TIME (SEC) =   0.0000    
       ELAPSED WALLCLOCK TIME (SEC) =          0

               CONVERGENCE CHECKS FOR EQUILIBRIUM ITERATION     1


 AVERAGE FORCE                       26.8       TIME AVG. FORCE        16.8    
 LARGEST RESIDUAL FORCE             1.930E-02   AT NODE         20   DOF  3
   INSTANCE: Instance A                                                                      
 LARGEST INCREMENT OF DISP.         2.183E-03   AT NODE        114   DOF  3
   INSTANCE: Instance A                                                                      
 LARGEST CORRECTION TO DISP.       -4.173E-05   AT NODE        114   DOF  3
   INSTANCE: Instance A                                                                      
 ESTIMATE OF DISP.    CORRECTION   -4.271E-09
 FORCE     EQUILIB. ACCEPTED BASED ON SMALL RESIDUAL AND ESTIMATED CORRECTION

 AVERAGE MOMENT                     0.274       TIME AVG. MOMENT      0.170    
 LARGEST RESIDUAL MOMENT           -8.039E-04   AT NODE         20   DOF  6
   INSTANCE: Instance A                                                                      
 LARGEST INCREMENT OF ROTATION     -1.190E-02   AT NODE        191   DOF  6
   INSTANCE: Instance A                                                                      
 LARGEST CORRECTION TO ROTATION    -1.725E-04   AT NODE          1   DOF  6
   INSTANCE: Instance A                                                                      
 ESTIMATE OF ROTATION CORRECTION    2.254E-07
 MOMENT    EQUILIB. ACCEPTED BASED ON SMALL RESIDUAL AND ESTIMATED CORRECTION

 COMPATIBILITY ERRORS:
    TYPE                NUMBER EXCEEDING TOLERANCE  MAXIMUM ERROR        IN ELEMENT
 BEAM AXIAL                          0                9.190E-10                181
   INSTANCE: Instance A                                                                      
          TIME INCREMENT MAY NOW INCREASE TO    2.250E-02

 ITERATION SUMMARY FOR THE INCREMENT:   1 TOTAL ITERATIONS, OF WHICH
   0 ARE SEVERE DISCONTINUITY ITERATIONS AND  1 ARE EQUILIBRIUM ITERATIONS.

 TIME INCREMENT COMPLETED  1.500E-02,  FRACTION OF STEP COMPLETED  3.500E-02
 STEP TIME COMPLETED       3.500E-02,  TOTAL TIME COMPLETED        3.500E-02


  INCREMENT     4 STARTS. ATTEMPT NUMBER  1, TIME INCREMENT  2.250E-02

  NUMBER OF EQUATIONS =     1256     NUMBER OF FLOATING PT. OPERATIONS =  8.20E+06

     CHECK POINT   START OF SOLVER    

     CHECK POINT  END OF SOLVER       

       ELAPSED USER TIME (SEC)      =   0.0000    
       ELAPSED SYSTEM TIME (SEC)    =   0.0000    
       ELAPSED TOTAL CPU TIME (SEC) =   0.0000    
       ELAPSED WALLCLOCK TIME (SEC) =          0

               CONVERGENCE CHECKS FOR EQUILIBRIUM ITERATION     1


 AVERAGE FORCE                       42.6       TIME AVG. FORCE        23.2    
 LARGEST RESIDUAL FORCE             9.237E-02   AT NODE        172   DOF  3
   INSTANCE: Instance A                                                                      
 LARGEST INCREMENT OF DISP.         3.187E-03   AT NODE        114   DOF  3
   INSTANCE: Instance A                                                                      
 LARGEST CORRECTION TO DISP.       -8.772E-05   AT NODE        114   DOF  3
   INSTANCE: Instance A                                                                      
 ESTIMATE OF DISP.    CORRECTION   -1.970E-08
 FORCE     EQUILIB. ACCEPTED BASED ON SMALL RESIDUAL AND ESTIMATED CORRECTION

 AVERAGE MOMENT                     0.442       TIME AVG. MOMENT      0.238    
 LARGEST RESIDUAL MOMENT           -3.196E-03   AT NODE         20   DOF  6
   INSTANCE: Instance A                                                                      
 LARGEST INCREMENT OF ROTATION     -1.748E-02   AT NODE        191   DOF  6
   INSTANCE: Instance A                                                                      
 LARGEST CORRECTION TO ROTATION     3.598E-04   AT NODE        191   DOF  6
   INSTANCE: Instance A                                                                      
          MOMENT    EQUILIBRIUM NOT ACHIEVED WITHIN TOLERANCE.

 COMPATIBILITY ERRORS:
    TYPE                NUMBER EXCEEDING TOLERANCE  MAXIMUM ERROR        IN ELEMENT
 BEAM AXIAL                          0                4.358E-09                182
   INSTANCE: Instance A                                                                      

  NUMBER OF EQUATIONS =     1256     NUMBER OF FLOATING PT. OPERATIONS =  8.20E+06

     CHECK POINT   START OF SOLVER    

     CHECK POINT  END OF SOLVER       

       ELAPSED USER TIME (SEC)      =   0.0000    
       ELAPSED SYSTEM TIME (SEC)    =   0.0000    
       ELAPSED TOTAL CPU TIME (SEC) =   0.0000    
       ELAPSED WALLCLOCK TIME (SEC) =          0

               CONVERGENCE CHECKS FOR EQUILIBRIUM ITERATION     2


 AVERAGE FORCE                       42.9       TIME AVG. FORCE        23.3    
 LARGEST RESIDUAL FORCE            -2.805E-04   AT NODE        114   DOF  2
   INSTANCE: Instance A                                                                      
 LARGEST INCREMENT OF DISP.         3.195E-03   AT NODE        114   DOF  3
   INSTANCE: Instance A                                                                      
 LARGEST CORRECTION TO DISP.        8.049E-06   AT NODE        114   DOF  3
   INSTANCE: Instance A                                                                      
          THE FORCE     EQUILIBRIUM EQUATIONS HAVE CONVERGED

 AVERAGE MOMENT                     0.445       TIME AVG. MOMENT      0.239    
 LARGEST RESIDUAL MOMENT           -6.328E-06   AT NODE        192   DOF  6
   INSTANCE: Instance A                                                                      
 LARGEST INCREMENT OF ROTATION      1.747E-02   AT NODE          1   DOF  6
   INSTANCE: Instance A                                                                      
 LARGEST CORRECTION TO ROTATION     1.756E-05   AT NODE          1   DOF  4
   INSTANCE: Instance A                                                                      
          THE MOMENT    EQUILIBRIUM EQUATIONS HAVE CONVERGED

 COMPATIBILITY ERRORS:
    TYPE                NUMBER EXCEEDING TOLERANCE  MAXIMUM ERROR        IN ELEMENT
 BEAM AXIAL                          0                1.162E-11                182
   INSTANCE: Instance A                                                                      
          TIME INCREMENT MAY NOW INCREASE TO    3.375E-02

 ITERATION SUMMARY FOR THE INCREMENT:   2 TOTAL ITERATIONS, OF WHICH
   0 ARE SEVERE DISCONTINUITY ITERATIONS AND  2 ARE EQUILIBRIUM ITERATIONS.

 TIME INCREMENT COMPLETED  2.250E-02,  FRACTION OF STEP COMPLETED  5.750E-02
 STEP TIME COMPLETED       5.750E-02,  TOTAL TIME COMPLETED        5.750E-02


  INCREMENT     5 STARTS. ATTEMPT NUMBER  1, TIME INCREMENT  3.375E-02

  NUMBER OF EQUATIONS =     1256     NUMBER OF FLOATING PT. OPERATIONS =  8.20E+06

     CHECK POINT   START OF SOLVER    

     CHECK POINT  END OF SOLVER       

       ELAPSED USER TIME (SEC)      =   0.0000    
       ELAPSED SYSTEM TIME (SEC)    =   0.0000    
       ELAPSED TOTAL CPU TIME (SEC) =   0.0000    
       ELAPSED WALLCLOCK TIME (SEC) =          0

               CONVERGENCE CHECKS FOR EQUILIBRIUM ITERATION     1


 AVERAGE FORCE                       65.0       TIME AVG. FORCE        31.6    
 LARGEST RESIDUAL FORCE             0.379       AT NODE        172   DOF  3
   INSTANCE: Instance A                                                                      
 LARGEST INCREMENT OF DISP.         4.601E-03   AT NODE        114   DOF  3
   INSTANCE: Instance A                                                                      
 LARGEST CORRECTION TO DISP.       -1.911E-04   AT NODE        114   DOF  3
   INSTANCE: Instance A                                                                      
          FORCE     EQUILIBRIUM NOT ACHIEVED WITHIN TOLERANCE.

 AVERAGE MOMENT                     0.687       TIME AVG. MOMENT      0.329    
 LARGEST RESIDUAL MOMENT            1.245E-02   AT NODE        172   DOF  6
   INSTANCE: Instance A                                                                      
 LARGEST INCREMENT OF ROTATION      2.547E-02   AT NODE          1   DOF  6
   INSTANCE: Instance A                                                                      
 LARGEST CORRECTION TO ROTATION    -7.420E-04   AT NODE          1   DOF  6
   INSTANCE: Instance A                                                                      
          MOMENT    EQUILIBRIUM NOT ACHIEVED WITHIN TOLERANCE.

 COMPATIBILITY ERRORS:
    TYPE                NUMBER EXCEEDING TOLERANCE  MAXIMUM ERROR        IN ELEMENT
 BEAM AXIAL                          0                1.851E-08                182
   INSTANCE: Instance A                                                                      

  NUMBER OF EQUATIONS =     1256     NUMBER OF FLOATING PT. OPERATIONS =  8.20E+06

     CHECK POINT   START OF SOLVER    

     CHECK POINT  END OF SOLVER       

       ELAPSED USER TIME (SEC)      =  0.10000    
       ELAPSED SYSTEM TIME (SEC)    =   0.0000    
       ELAPSED TOTAL CPU TIME (SEC) =  0.10000    
       ELAPSED WALLCLOCK TIME (SEC) =          0

               CONVERGENCE CHECKS FOR EQUILIBRIUM ITERATION     2


 AVERAGE FORCE                       65.5       TIME AVG. FORCE        31.7    
 LARGEST RESIDUAL FORCE            -2.626E-03   AT NODE        114   DOF  2
   INSTANCE: Instance A                                                                      
 LARGEST INCREMENT OF DISP.         4.626E-03   AT NODE        114   DOF  3
   INSTANCE: Instance A                                                                      
 LARGEST CORRECTION TO DISP.        2.462E-05   AT NODE        114   DOF  3
   INSTANCE: Instance A                                                                      
          THE FORCE     EQUILIBRIUM EQUATIONS HAVE CONVERGED

 AVERAGE MOMENT                     0.692       TIME AVG. MOMENT      0.330    
 LARGEST RESIDUAL MOMENT           -2.897E-05   AT NODE        192   DOF  6
   INSTANCE: Instance A                                                                      
 LARGEST INCREMENT OF ROTATION      2.544E-02   AT NODE          1   DOF  6
   INSTANCE: Instance A                                                                      
 LARGEST CORRECTION TO ROTATION     5.431E-05   AT NODE          1   DOF  4
   INSTANCE: Instance A                                                                      
          THE MOMENT    EQUILIBRIUM EQUATIONS HAVE CONVERGED

 COMPATIBILITY ERRORS:
    TYPE                NUMBER EXCEEDING TOLERANCE  MAXIMUM ERROR        IN ELEMENT
 BEAM AXIAL                          0                1.072E-10                181
   INSTANCE: Instance A                                                                      
          TIME INCREMENT MAY NOW INCREASE TO    5.000E-02

 ITERATION SUMMARY FOR THE INCREMENT:   2 TOTAL ITERATIONS, OF WHICH
   0 ARE SEVERE DISCONTINUITY ITERATIONS AND  2 ARE EQUILIBRIUM ITERATIONS.

 TIME INCREMENT COMPLETED  3.375E-02,  FRACTION OF STEP COMPLETED  9.125E-02
 STEP TIME COMPLETED       9.125E-02,  TOTAL TIME COMPLETED        9.125E-02


  INCREMENT     6 STARTS. ATTEMPT NUMBER  1, TIME INCREMENT  5.000E-02

  NUMBER OF EQUATIONS =     1256     NUMBER OF FLOATING PT. OPERATIONS =  8.20E+06

     CHECK POINT   START OF SOLVER    

     CHECK POINT  END OF SOLVER       

       ELAPSED USER TIME (SEC)      =   0.0000    
       ELAPSED SYSTEM TIME (SEC)    =   0.0000    
       ELAPSED TOTAL CPU TIME (SEC) =   0.0000    
       ELAPSED WALLCLOCK TIME (SEC) =          1

               CONVERGENCE CHECKS FOR EQUILIBRIUM ITERATION     1


 AVERAGE FORCE                       95.3       TIME AVG. FORCE        42.3    
 LARGEST RESIDUAL FORCE              1.49       AT NODE         20   DOF  3
   INSTANCE: Instance A                                                                      
 LARGEST INCREMENT OF DISP.         6.484E-03   AT NODE        114   DOF  3
   INSTANCE: Instance A                                                                      
 LARGEST CORRECTION TO DISP.       -3.691E-04   AT NODE        114   DOF  3
   INSTANCE: Instance A                                                                      
          FORCE     EQUILIBRIUM NOT ACHIEVED WITHIN TOLERANCE.

 AVERAGE MOMENT                      1.03       TIME AVG. MOMENT      0.447    
 LARGEST RESIDUAL MOMENT           -4.664E-02   AT NODE         20   DOF  6
   INSTANCE: Instance A                                                                      
 LARGEST INCREMENT OF ROTATION      3.619E-02   AT NODE          1   DOF  6
   INSTANCE: Instance A                                                                      
 LARGEST CORRECTION TO ROTATION     1.498E-03   AT NODE        191   DOF  6
   INSTANCE: Instance A                                                                      
          MOMENT    EQUILIBRIUM NOT ACHIEVED WITHIN TOLERANCE.

 COMPATIBILITY ERRORS:
    TYPE                NUMBER EXCEEDING TOLERANCE  MAXIMUM ERROR        IN ELEMENT
 BEAM AXIAL                          0                7.662E-08                182
   INSTANCE: Instance A                                                                      

  NUMBER OF EQUATIONS =     1256     NUMBER OF FLOATING PT. OPERATIONS =  8.20E+06

     CHECK POINT   START OF SOLVER    

     CHECK POINT  END OF SOLVER       

       ELAPSED USER TIME (SEC)      =   0.0000    
       ELAPSED SYSTEM TIME (SEC)    =   0.0000    
       ELAPSED TOTAL CPU TIME (SEC) =   0.0000    
       ELAPSED WALLCLOCK TIME (SEC) =          0

               CONVERGENCE CHECKS FOR EQUILIBRIUM ITERATION     2


 AVERAGE FORCE                       95.6       TIME AVG. FORCE        42.4    
 LARGEST RESIDUAL FORCE            -2.572E-02   AT NODE        114   DOF  2
   INSTANCE: Instance A                                                                      
 LARGEST INCREMENT OF DISP.         6.561E-03   AT NODE        114   DOF  3
   INSTANCE: Instance A                                                                      
 LARGEST CORRECTION TO DISP.        7.704E-05   AT NODE        114   DOF  3
   INSTANCE: Instance A                                                                      
 ESTIMATE OF DISP.    CORRECTION   -1.330E-06
 FORCE     EQUILIB. ACCEPTED BASED ON SMALL RESIDUAL AND ESTIMATED CORRECTION

 AVERAGE MOMENT                      1.04       TIME AVG. MOMENT      0.448    
 LARGEST RESIDUAL MOMENT           -1.447E-04   AT NODE        173   DOF  6
   INSTANCE: Instance A                                                                      
 LARGEST INCREMENT OF ROTATION     -3.610E-02   AT NODE        191   DOF  6
   INSTANCE: Instance A                                                                      
 LARGEST CORRECTION TO ROTATION     1.657E-04   AT NODE          1   DOF  4
   INSTANCE: Instance A                                                                      
          THE MOMENT    EQUILIBRIUM EQUATIONS HAVE CONVERGED

 COMPATIBILITY ERRORS:
    TYPE                NUMBER EXCEEDING TOLERANCE  MAXIMUM ERROR        IN ELEMENT
 BEAM AXIAL                          0                1.043E-09                182
   INSTANCE: Instance A                                                                      

 ITERATION SUMMARY FOR THE INCREMENT:   2 TOTAL ITERATIONS, OF WHICH
   0 ARE SEVERE DISCONTINUITY ITERATIONS AND  2 ARE EQUILIBRIUM ITERATIONS.

 TIME INCREMENT COMPLETED  5.000E-02,  FRACTION OF STEP COMPLETED  0.141    
 STEP TIME COMPLETED       0.141    ,  TOTAL TIME COMPLETED        0.141    


  INCREMENT     7 STARTS. ATTEMPT NUMBER  1, TIME INCREMENT  5.000E-02

  NUMBER OF EQUATIONS =     1256     NUMBER OF FLOATING PT. OPERATIONS =  8.20E+06

     CHECK POINT   START OF SOLVER    

     CHECK POINT  END OF SOLVER       

       ELAPSED USER TIME (SEC)      =   0.0000    
       ELAPSED SYSTEM TIME (SEC)    =   0.0000    
       ELAPSED TOTAL CPU TIME (SEC) =   0.0000    
       ELAPSED WALLCLOCK TIME (SEC) =          0

               CONVERGENCE CHECKS FOR EQUILIBRIUM ITERATION     1


 AVERAGE FORCE                       123.       TIME AVG. FORCE        53.9    
 LARGEST RESIDUAL FORCE              1.81       AT NODE        172   DOF  3
   INSTANCE: Instance A                                                                      
 LARGEST INCREMENT OF DISP.         6.211E-03   AT NODE        114   DOF  3
   INSTANCE: Instance A                                                                      
 LARGEST CORRECTION TO DISP.       -3.506E-04   AT NODE        114   DOF  3
   INSTANCE: Instance A                                                                      
          FORCE     EQUILIBRIUM NOT ACHIEVED WITHIN TOLERANCE.

 AVERAGE MOMENT                      1.36       TIME AVG. MOMENT      0.578    
 LARGEST RESIDUAL MOMENT            5.877E-02   AT NODE        172   DOF  6
   INSTANCE: Instance A                                                                      
 LARGEST INCREMENT OF ROTATION     -3.452E-02   AT NODE        191   DOF  6
   INSTANCE: Instance A                                                                      
 LARGEST CORRECTION TO ROTATION    -1.578E-03   AT NODE          1   DOF  6
   INSTANCE: Instance A                                                                      
          MOMENT    EQUILIBRIUM NOT ACHIEVED WITHIN TOLERANCE.

 COMPATIBILITY ERRORS:
    TYPE                NUMBER EXCEEDING TOLERANCE  MAXIMUM ERROR        IN ELEMENT
 BEAM AXIAL                          0                9.608E-08                182
   INSTANCE: Instance A                                                                      

  NUMBER OF EQUATIONS =     1256     NUMBER OF FLOATING PT. OPERATIONS =  8.20E+06

     CHECK POINT   START OF SOLVER    

     CHECK POINT  END OF SOLVER       

       ELAPSED USER TIME (SEC)      =   0.0000    
       ELAPSED SYSTEM TIME (SEC)    =   0.0000    
       ELAPSED TOTAL CPU TIME (SEC) =   0.0000    
       ELAPSED WALLCLOCK TIME (SEC) =          0

               CONVERGENCE CHECKS FOR EQUILIBRIUM ITERATION     2


 AVERAGE FORCE                       123.       TIME AVG. FORCE        53.9    
 LARGEST RESIDUAL FORCE            -3.521E-02   AT NODE        114   DOF  2
   INSTANCE: Instance A                                                                      
 LARGEST INCREMENT OF DISP.         6.301E-03   AT NODE        114   DOF  3
   INSTANCE: Instance A                                                                      
 LARGEST CORRECTION TO DISP.        8.995E-05   AT NODE        114   DOF  3
   INSTANCE: Instance A                                                                      
 ESTIMATE OF DISP.    CORRECTION   -1.753E-06
 FORCE     EQUILIB. ACCEPTED BASED ON SMALL RESIDUAL AND ESTIMATED CORRECTION

 AVERAGE MOMENT                      1.37       TIME AVG. MOMENT      0.579    
 LARGEST RESIDUAL MOMENT           -1.967E-04   AT NODE        192   DOF  5
   INSTANCE: Instance A                                                                      
 LARGEST INCREMENT OF ROTATION      3.439E-02   AT NODE          1   DOF  6
   INSTANCE: Instance A                                                                      
 LARGEST CORRECTION TO ROTATION     1.980E-04   AT NODE          1   DOF  4
   INSTANCE: Instance A                                                                      
          THE MOMENT    EQUILIBRIUM EQUATIONS HAVE CONVERGED

 COMPATIBILITY ERRORS:
    TYPE                NUMBER EXCEEDING TOLERANCE  MAXIMUM ERROR        IN ELEMENT
 BEAM AXIAL                          0                1.351E-09                182
   INSTANCE: Instance A                                                                      

 ITERATION SUMMARY FOR THE INCREMENT:   2 TOTAL ITERATIONS, OF WHICH
   0 ARE SEVERE DISCONTINUITY ITERATIONS AND  2 ARE EQUILIBRIUM ITERATIONS.

 TIME INCREMENT COMPLETED  5.000E-02,  FRACTION OF STEP COMPLETED  0.191    
 STEP TIME COMPLETED       0.191    ,  TOTAL TIME COMPLETED        0.191    


  INCREMENT     8 STARTS. ATTEMPT NUMBER  1, TIME INCREMENT  5.000E-02

  NUMBER OF EQUATIONS =     1256     NUMBER OF FLOATING PT. OPERATIONS =  8.20E+06

     CHECK POINT   START OF SOLVER    

     CHECK POINT  END OF SOLVER       

       ELAPSED USER TIME (SEC)      =   0.0000    
       ELAPSED SYSTEM TIME (SEC)    =   0.0000    
       ELAPSED TOTAL CPU TIME (SEC) =   0.0000    
       ELAPSED WALLCLOCK TIME (SEC) =          0

               CONVERGENCE CHECKS FOR EQUILIBRIUM ITERATION     1


 AVERAGE FORCE                       149.       TIME AVG. FORCE        65.7    
 LARGEST RESIDUAL FORCE              1.47       AT NODE        172   DOF  3
   INSTANCE: Instance A                                                                      
 LARGEST INCREMENT OF DISP.         6.021E-03   AT NODE        114   DOF  3
   INSTANCE: Instance A                                                                      
 LARGEST CORRECTION TO DISP.        3.119E-04   AT NODE        210   DOF  2
   INSTANCE: Instance A                                                                      
          FORCE     EQUILIBRIUM NOT ACHIEVED WITHIN TOLERANCE.

 AVERAGE MOMENT                      1.68       TIME AVG. MOMENT      0.717    
 LARGEST RESIDUAL MOMENT           -5.391E-02   AT NODE         20   DOF  6
   INSTANCE: Instance A                                                                      
 LARGEST INCREMENT OF ROTATION     -3.296E-02   AT NODE        191   DOF  6
   INSTANCE: Instance A                                                                      
 LARGEST CORRECTION TO ROTATION    -1.434E-03   AT NODE          1   DOF  6
   INSTANCE: Instance A                                                                      
          MOMENT    EQUILIBRIUM NOT ACHIEVED WITHIN TOLERANCE.

 COMPATIBILITY ERRORS:
    TYPE                NUMBER EXCEEDING TOLERANCE  MAXIMUM ERROR        IN ELEMENT
 BEAM AXIAL                          0                8.130E-08                181
   INSTANCE: Instance A                                                                      

  NUMBER OF EQUATIONS =     1256     NUMBER OF FLOATING PT. OPERATIONS =  8.20E+06

     CHECK POINT   START OF SOLVER    

     CHECK POINT  END OF SOLVER       

       ELAPSED USER TIME (SEC)      =   0.0000    
       ELAPSED SYSTEM TIME (SEC)    =   0.0000    
       ELAPSED TOTAL CPU TIME (SEC) =   0.0000    
       ELAPSED WALLCLOCK TIME (SEC) =          0

               CONVERGENCE CHECKS FOR EQUILIBRIUM ITERATION     2


 AVERAGE FORCE                       149.       TIME AVG. FORCE        65.8    
 LARGEST RESIDUAL FORCE            -2.723E-02   AT NODE        114   DOF  2
   INSTANCE: Instance A                                                                      
 LARGEST INCREMENT OF DISP.         6.100E-03   AT NODE        114   DOF  3
   INSTANCE: Instance A                                                                      
 LARGEST CORRECTION TO DISP.        7.885E-05   AT NODE        114   DOF  3
   INSTANCE: Instance A                                                                      
 ESTIMATE OF DISP.    CORRECTION   -1.457E-06
 FORCE     EQUILIB. ACCEPTED BASED ON SMALL RESIDUAL AND ESTIMATED CORRECTION

 AVERAGE MOMENT                      1.69       TIME AVG. MOMENT      0.719    
 LARGEST RESIDUAL MOMENT            2.185E-04   AT NODE          2   DOF  5
   INSTANCE: Instance A                                                                      
 LARGEST INCREMENT OF ROTATION     -3.283E-02   AT NODE        191   DOF  6
   INSTANCE: Instance A                                                                      
 LARGEST CORRECTION TO ROTATION     1.835E-04   AT NODE          1   DOF  4
   INSTANCE: Instance A                                                                      
          THE MOMENT    EQUILIBRIUM EQUATIONS HAVE CONVERGED

 COMPATIBILITY ERRORS:
    TYPE                NUMBER EXCEEDING TOLERANCE  MAXIMUM ERROR        IN ELEMENT
 BEAM AXIAL                          0                9.632E-10                182
   INSTANCE: Instance A                                                                      

 ITERATION SUMMARY FOR THE INCREMENT:   2 TOTAL ITERATIONS, OF WHICH
   0 ARE SEVERE DISCONTINUITY ITERATIONS AND  2 ARE EQUILIBRIUM ITERATIONS.

 TIME INCREMENT COMPLETED  5.000E-02,  FRACTION OF STEP COMPLETED  0.241    
 STEP TIME COMPLETED       0.241    ,  TOTAL TIME COMPLETED        0.241    


  INCREMENT     9 STARTS. ATTEMPT NUMBER  1, TIME INCREMENT  5.000E-02

  NUMBER OF EQUATIONS =     1256     NUMBER OF FLOATING PT. OPERATIONS =  8.20E+06

     CHECK POINT   START OF SOLVER    

     CHECK POINT  END OF SOLVER       

       ELAPSED USER TIME (SEC)      =   0.0000    
       ELAPSED SYSTEM TIME (SEC)    =   0.0000    
       ELAPSED TOTAL CPU TIME (SEC) =   0.0000    
       ELAPSED WALLCLOCK TIME (SEC) =          0

               CONVERGENCE CHECKS FOR EQUILIBRIUM ITERATION     1


 AVERAGE FORCE                       173.       TIME AVG. FORCE        77.7    
 LARGEST RESIDUAL FORCE              1.23       AT NODE         20   DOF  3
   INSTANCE: Instance A                                                                      
 LARGEST INCREMENT OF DISP.         5.875E-03   AT NODE        114   DOF  3
   INSTANCE: Instance A                                                                      
 LARGEST CORRECTION TO DISP.        2.806E-04   AT NODE        212   DOF  2
   INSTANCE: Instance A                                                                      
          FORCE     EQUILIBRIUM NOT ACHIEVED WITHIN TOLERANCE.

 AVERAGE MOMENT                      1.98       TIME AVG. MOMENT      0.859    
 LARGEST RESIDUAL MOMENT           -4.976E-02   AT NODE         20   DOF  6
   INSTANCE: Instance A                                                                      
 LARGEST INCREMENT OF ROTATION     -3.154E-02   AT NODE        191   DOF  6
   INSTANCE: Instance A                                                                      
 LARGEST CORRECTION TO ROTATION     1.286E-03   AT NODE        191   DOF  6
   INSTANCE: Instance A                                                                      
          MOMENT    EQUILIBRIUM NOT ACHIEVED WITHIN TOLERANCE.

 COMPATIBILITY ERRORS:
    TYPE                NUMBER EXCEEDING TOLERANCE  MAXIMUM ERROR        IN ELEMENT
 BEAM AXIAL                          0                6.962E-08                182
   INSTANCE: Instance A                                                                      

  NUMBER OF EQUATIONS =     1256     NUMBER OF FLOATING PT. OPERATIONS =  8.20E+06

     CHECK POINT   START OF SOLVER    

     CHECK POINT  END OF SOLVER       

       ELAPSED USER TIME (SEC)      =   0.0000    
       ELAPSED SYSTEM TIME (SEC)    =   0.0000    
       ELAPSED TOTAL CPU TIME (SEC) =   0.0000    
       ELAPSED WALLCLOCK TIME (SEC) =          0

               CONVERGENCE CHECKS FOR EQUILIBRIUM ITERATION     2


 AVERAGE FORCE                       173.       TIME AVG. FORCE        77.8    
 LARGEST RESIDUAL FORCE            -2.169E-02   AT NODE        114   DOF  2
   INSTANCE: Instance A                                                                      
 LARGEST INCREMENT OF DISP.         5.945E-03   AT NODE        114   DOF  3
   INSTANCE: Instance A                                                                      
 LARGEST CORRECTION TO DISP.        7.015E-05   AT NODE        114   DOF  3
   INSTANCE: Instance A                                                                      
 ESTIMATE OF DISP.    CORRECTION   -1.241E-06
 FORCE     EQUILIB. ACCEPTED BASED ON SMALL RESIDUAL AND ESTIMATED CORRECTION

 AVERAGE MOMENT                      2.00       TIME AVG. MOMENT      0.861    
 LARGEST RESIDUAL MOMENT           -2.376E-04   AT NODE        192   DOF  5
   INSTANCE: Instance A                                                                      
 LARGEST INCREMENT OF ROTATION      3.141E-02   AT NODE          1   DOF  6
   INSTANCE: Instance A                                                                      
 LARGEST CORRECTION TO ROTATION     1.714E-04   AT NODE          1   DOF  4
   INSTANCE: Instance A                                                                      
          THE MOMENT    EQUILIBRIUM EQUATIONS HAVE CONVERGED

 COMPATIBILITY ERRORS:
    TYPE                NUMBER EXCEEDING TOLERANCE  MAXIMUM ERROR        IN ELEMENT
 BEAM AXIAL                          0                7.090E-10                182
   INSTANCE: Instance A                                                                      

 ITERATION SUMMARY FOR THE INCREMENT:   2 TOTAL ITERATIONS, OF WHICH
   0 ARE SEVERE DISCONTINUITY ITERATIONS AND  2 ARE EQUILIBRIUM ITERATIONS.

 TIME INCREMENT COMPLETED  5.000E-02,  FRACTION OF STEP COMPLETED  0.291    
 STEP TIME COMPLETED       0.291    ,  TOTAL TIME COMPLETED        0.291    


  INCREMENT    10 STARTS. ATTEMPT NUMBER  1, TIME INCREMENT  5.000E-02

  NUMBER OF EQUATIONS =     1256     NUMBER OF FLOATING PT. OPERATIONS =  8.20E+06

     CHECK POINT   START OF SOLVER    

     CHECK POINT  END OF SOLVER       

       ELAPSED USER TIME (SEC)      =   0.0000    
       ELAPSED SYSTEM TIME (SEC)    =   0.0000    
       ELAPSED TOTAL CPU TIME (SEC) =   0.0000    
       ELAPSED WALLCLOCK TIME (SEC) =          0

               CONVERGENCE CHECKS FOR EQUILIBRIUM ITERATION     1


 AVERAGE FORCE                       195.       TIME AVG. FORCE        89.5    
 LARGEST RESIDUAL FORCE              1.03       AT NODE        172   DOF  3
   INSTANCE: Instance A                                                                      
 LARGEST INCREMENT OF DISP.         5.762E-03   AT NODE        114   DOF  3
   INSTANCE: Instance A                                                                      
 LARGEST CORRECTION TO DISP.        2.538E-04   AT NODE        210   DOF  2
   INSTANCE: Instance A                                                                      
          FORCE     EQUILIBRIUM NOT ACHIEVED WITHIN TOLERANCE.

 AVERAGE MOMENT                      2.28       TIME AVG. MOMENT       1.00    
 LARGEST RESIDUAL MOMENT           -4.617E-02   AT NODE         20   DOF  6
   INSTANCE: Instance A                                                                      
 LARGEST INCREMENT OF ROTATION     -3.025E-02   AT NODE        191   DOF  6
   INSTANCE: Instance A                                                                      
 LARGEST CORRECTION TO ROTATION    -1.153E-03   AT NODE          1   DOF  6
   INSTANCE: Instance A                                                                      
          MOMENT    EQUILIBRIUM NOT ACHIEVED WITHIN TOLERANCE.

 COMPATIBILITY ERRORS:
    TYPE                NUMBER EXCEEDING TOLERANCE  MAXIMUM ERROR        IN ELEMENT
 BEAM AXIAL                          0                6.014E-08                182
   INSTANCE: Instance A                                                                      

  NUMBER OF EQUATIONS =     1256     NUMBER OF FLOATING PT. OPERATIONS =  8.20E+06

     CHECK POINT   START OF SOLVER    

     CHECK POINT  END OF SOLVER       

       ELAPSED USER TIME (SEC)      =   0.0000    
       ELAPSED SYSTEM TIME (SEC)    =   0.0000    
       ELAPSED TOTAL CPU TIME (SEC) =   0.0000    
       ELAPSED WALLCLOCK TIME (SEC) =          0

               CONVERGENCE CHECKS FOR EQUILIBRIUM ITERATION     2


 AVERAGE FORCE                       196.       TIME AVG. FORCE        89.6    
 LARGEST RESIDUAL FORCE            -1.764E-02   AT NODE        114   DOF  2
   INSTANCE: Instance A                                                                      
 LARGEST INCREMENT OF DISP.         5.825E-03   AT NODE        114   DOF  3
   INSTANCE: Instance A                                                                      
 LARGEST CORRECTION TO DISP.        6.307E-05   AT NODE        114   DOF  3
   INSTANCE: Instance A                                                                      
 ESTIMATE OF DISP.    CORRECTION   -1.077E-06
 FORCE     EQUILIB. ACCEPTED BASED ON SMALL RESIDUAL AND ESTIMATED CORRECTION

 AVERAGE MOMENT                      2.29       TIME AVG. MOMENT       1.00    
 LARGEST RESIDUAL MOMENT           -2.536E-04   AT NODE        192   DOF  5
   INSTANCE: Instance A                                                                      
 LARGEST INCREMENT OF ROTATION      3.012E-02   AT NODE          1   DOF  6
   INSTANCE: Instance A                                                                      
 LARGEST CORRECTION TO ROTATION     1.608E-04   AT NODE        191   DOF  4
   INSTANCE: Instance A                                                                      
          THE MOMENT    EQUILIBRIUM EQUATIONS HAVE CONVERGED

 COMPATIBILITY ERRORS:
    TYPE                NUMBER EXCEEDING TOLERANCE  MAXIMUM ERROR        IN ELEMENT
 BEAM AXIAL                          0                5.341E-10                181
   INSTANCE: Instance A                                                                      

 ITERATION SUMMARY FOR THE INCREMENT:   2 TOTAL ITERATIONS, OF WHICH
   0 ARE SEVERE DISCONTINUITY ITERATIONS AND  2 ARE EQUILIBRIUM ITERATIONS.

 TIME INCREMENT COMPLETED  5.000E-02,  FRACTION OF STEP COMPLETED  0.341    
 STEP TIME COMPLETED       0.341    ,  TOTAL TIME COMPLETED        0.341    


  INCREMENT    11 STARTS. ATTEMPT NUMBER  1, TIME INCREMENT  5.000E-02

  NUMBER OF EQUATIONS =     1256     NUMBER OF FLOATING PT. OPERATIONS =  8.20E+06

     CHECK POINT   START OF SOLVER    

     CHECK POINT  END OF SOLVER       

       ELAPSED USER TIME (SEC)      =   0.0000    
       ELAPSED SYSTEM TIME (SEC)    =   0.0000    
       ELAPSED TOTAL CPU TIME (SEC) =   0.0000    
       ELAPSED WALLCLOCK TIME (SEC) =          0

               CONVERGENCE CHECKS FOR EQUILIBRIUM ITERATION     1


 AVERAGE FORCE                       216.       TIME AVG. FORCE        101.    
 LARGEST RESIDUAL FORCE             0.881       AT NODE         20   DOF  3
   INSTANCE: Instance A                                                                      
 LARGEST INCREMENT OF DISP.         5.675E-03   AT NODE        114   DOF  3
   INSTANCE: Instance A                                                                      
 LARGEST CORRECTION TO DISP.        2.307E-04   AT NODE        210   DOF  2
   INSTANCE: Instance A                                                                      
          FORCE     EQUILIBRIUM NOT ACHIEVED WITHIN TOLERANCE.

 AVERAGE MOMENT                      2.56       TIME AVG. MOMENT       1.15    
 LARGEST RESIDUAL MOMENT            4.303E-02   AT NODE        172   DOF  6
   INSTANCE: Instance A                                                                      
 LARGEST INCREMENT OF ROTATION     -2.908E-02   AT NODE        191   DOF  6
   INSTANCE: Instance A                                                                      
 LARGEST CORRECTION TO ROTATION     1.044E-03   AT NODE        191   DOF  4
   INSTANCE: Instance A                                                                      
          MOMENT    EQUILIBRIUM NOT ACHIEVED WITHIN TOLERANCE.

 COMPATIBILITY ERRORS:
    TYPE                NUMBER EXCEEDING TOLERANCE  MAXIMUM ERROR        IN ELEMENT
 BEAM AXIAL                          0                5.228E-08                182
   INSTANCE: Instance A                                                                      

  NUMBER OF EQUATIONS =     1256     NUMBER OF FLOATING PT. OPERATIONS =  8.20E+06

     CHECK POINT   START OF SOLVER    

     CHECK POINT  END OF SOLVER       

       ELAPSED USER TIME (SEC)      =   0.0000    
       ELAPSED SYSTEM TIME (SEC)    =   0.0000    
       ELAPSED TOTAL CPU TIME (SEC) =   0.0000    
       ELAPSED WALLCLOCK TIME (SEC) =          0

               CONVERGENCE CHECKS FOR EQUILIBRIUM ITERATION     2


 AVERAGE FORCE                       218.       TIME AVG. FORCE        101.    
 LARGEST RESIDUAL FORCE            -1.458E-02   AT NODE        114   DOF  2
   INSTANCE: Instance A                                                                      
 LARGEST INCREMENT OF DISP.         5.732E-03   AT NODE        114   DOF  3
   INSTANCE: Instance A                                                                      
 LARGEST CORRECTION TO DISP.        5.717E-05   AT NODE        114   DOF  3
   INSTANCE: Instance A                                                                      
          THE FORCE     EQUILIBRIUM EQUATIONS HAVE CONVERGED

 AVERAGE MOMENT                      2.57       TIME AVG. MOMENT       1.15    
 LARGEST RESIDUAL MOMENT            2.666E-04   AT NODE          2   DOF  5
   INSTANCE: Instance A                                                                      
 LARGEST INCREMENT OF ROTATION     -2.894E-02   AT NODE        191   DOF  6
   INSTANCE: Instance A                                                                      
 LARGEST CORRECTION TO ROTATION     1.514E-04   AT NODE        191   DOF  4
   INSTANCE: Instance A                                                                      
          THE MOMENT    EQUILIBRIUM EQUATIONS HAVE CONVERGED

 COMPATIBILITY ERRORS:
    TYPE                NUMBER EXCEEDING TOLERANCE  MAXIMUM ERROR        IN ELEMENT
 BEAM AXIAL                          0                4.100E-10                181
   INSTANCE: Instance A                                                                      

 ITERATION SUMMARY FOR THE INCREMENT:   2 TOTAL ITERATIONS, OF WHICH
   0 ARE SEVERE DISCONTINUITY ITERATIONS AND  2 ARE EQUILIBRIUM ITERATIONS.

 TIME INCREMENT COMPLETED  5.000E-02,  FRACTION OF STEP COMPLETED  0.391    
 STEP TIME COMPLETED       0.391    ,  TOTAL TIME COMPLETED        0.391    


  INCREMENT    12 STARTS. ATTEMPT NUMBER  1, TIME INCREMENT  5.000E-02

  NUMBER OF EQUATIONS =     1256     NUMBER OF FLOATING PT. OPERATIONS =  8.20E+06

     CHECK POINT   START OF SOLVER    

     CHECK POINT  END OF SOLVER       

       ELAPSED USER TIME (SEC)      =   0.0000    
       ELAPSED SYSTEM TIME (SEC)    =   0.0000    
       ELAPSED TOTAL CPU TIME (SEC) =   0.0000    
       ELAPSED WALLCLOCK TIME (SEC) =          0

               CONVERGENCE CHECKS FOR EQUILIBRIUM ITERATION     1


 AVERAGE FORCE                       237.       TIME AVG. FORCE        113.    
 LARGEST RESIDUAL FORCE             0.758       AT NODE        172   DOF  3
   INSTANCE: Instance A                                                                      
 LARGEST INCREMENT OF DISP.         5.606E-03   AT NODE        114   DOF  3
   INSTANCE: Instance A                                                                      
 LARGEST CORRECTION TO DISP.        2.105E-04   AT NODE        210   DOF  2
   INSTANCE: Instance A                                                                      
          FORCE     EQUILIBRIUM NOT ACHIEVED WITHIN TOLERANCE.

 AVERAGE MOMENT                      2.83       TIME AVG. MOMENT       1.29    
 LARGEST RESIDUAL MOMENT            4.066E-02   AT NODE        191   DOF  6
   INSTANCE: Instance A                                                                      
 LARGEST INCREMENT OF ROTATION     -2.800E-02   AT NODE        191   DOF  6
   INSTANCE: Instance A                                                                      
 LARGEST CORRECTION TO ROTATION     9.657E-04   AT NODE          1   DOF  4
   INSTANCE: Instance A                                                                      
          MOMENT    EQUILIBRIUM NOT ACHIEVED WITHIN TOLERANCE.

 COMPATIBILITY ERRORS:
    TYPE                NUMBER EXCEEDING TOLERANCE  MAXIMUM ERROR        IN ELEMENT
 BEAM AXIAL                          0                4.571E-08                181
   INSTANCE: Instance A                                                                      

  NUMBER OF EQUATIONS =     1256     NUMBER OF FLOATING PT. OPERATIONS =  8.20E+06

     CHECK POINT   START OF SOLVER    

     CHECK POINT  END OF SOLVER       

       ELAPSED USER TIME (SEC)      =   0.0000    
       ELAPSED SYSTEM TIME (SEC)    =   0.0000    
       ELAPSED TOTAL CPU TIME (SEC) =   0.0000    
       ELAPSED WALLCLOCK TIME (SEC) =          0

               CONVERGENCE CHECKS FOR EQUILIBRIUM ITERATION     2


 AVERAGE FORCE                       238.       TIME AVG. FORCE        113.    
 LARGEST RESIDUAL FORCE            -1.222E-02   AT NODE        114   DOF  2
   INSTANCE: Instance A                                                                      
 LARGEST INCREMENT OF DISP.         5.658E-03   AT NODE        114   DOF  3
   INSTANCE: Instance A                                                                      
 LARGEST CORRECTION TO DISP.        5.219E-05   AT NODE        114   DOF  3
   INSTANCE: Instance A                                                                      
          THE FORCE     EQUILIBRIUM EQUATIONS HAVE CONVERGED

 AVERAGE MOMENT                      2.85       TIME AVG. MOMENT       1.29    
 LARGEST RESIDUAL MOMENT           -2.769E-04   AT NODE        192   DOF  5
   INSTANCE: Instance A                                                                      
 LARGEST INCREMENT OF ROTATION      2.787E-02   AT NODE          1   DOF  6
   INSTANCE: Instance A                                                                      
 LARGEST CORRECTION TO ROTATION     1.429E-04   AT NODE        191   DOF  4
   INSTANCE: Instance A                                                                      
          THE MOMENT    EQUILIBRIUM EQUATIONS HAVE CONVERGED

 COMPATIBILITY ERRORS:
    TYPE                NUMBER EXCEEDING TOLERANCE  MAXIMUM ERROR        IN ELEMENT
 BEAM AXIAL                          0                3.203E-10                181
   INSTANCE: Instance A                                                                      

 ITERATION SUMMARY FOR THE INCREMENT:   2 TOTAL ITERATIONS, OF WHICH
   0 ARE SEVERE DISCONTINUITY ITERATIONS AND  2 ARE EQUILIBRIUM ITERATIONS.

 TIME INCREMENT COMPLETED  5.000E-02,  FRACTION OF STEP COMPLETED  0.441    
 STEP TIME COMPLETED       0.441    ,  TOTAL TIME COMPLETED        0.441    


  INCREMENT    13 STARTS. ATTEMPT NUMBER  1, TIME INCREMENT  5.000E-02

  NUMBER OF EQUATIONS =     1256     NUMBER OF FLOATING PT. OPERATIONS =  8.20E+06

     CHECK POINT   START OF SOLVER    

     CHECK POINT  END OF SOLVER       

       ELAPSED USER TIME (SEC)      =   0.0000    
       ELAPSED SYSTEM TIME (SEC)    =   0.0000    
       ELAPSED TOTAL CPU TIME (SEC) =   0.0000    
       ELAPSED WALLCLOCK TIME (SEC) =          0

               CONVERGENCE CHECKS FOR EQUILIBRIUM ITERATION     1


 AVERAGE FORCE                       256.       TIME AVG. FORCE        124.    
 LARGEST RESIDUAL FORCE             0.658       AT NODE        172   DOF  3
   INSTANCE: Instance A                                                                      
 LARGEST INCREMENT OF DISP.         5.551E-03   AT NODE        114   DOF  3
   INSTANCE: Instance A                                                                      
 LARGEST CORRECTION TO DISP.        1.929E-04   AT NODE        210   DOF  2
   INSTANCE: Instance A                                                                      
          FORCE     EQUILIBRIUM NOT ACHIEVED WITHIN TOLERANCE.

 AVERAGE MOMENT                      3.10       TIME AVG. MOMENT       1.43    
 LARGEST RESIDUAL MOMENT           -3.888E-02   AT NODE          1   DOF  6
   INSTANCE: Instance A                                                                      
 LARGEST INCREMENT OF ROTATION     -2.701E-02   AT NODE        191   DOF  6
   INSTANCE: Instance A                                                                      
 LARGEST CORRECTION TO ROTATION     8.974E-04   AT NODE          1   DOF  4
   INSTANCE: Instance A                                                                      
          MOMENT    EQUILIBRIUM NOT ACHIEVED WITHIN TOLERANCE.

 COMPATIBILITY ERRORS:
    TYPE                NUMBER EXCEEDING TOLERANCE  MAXIMUM ERROR        IN ELEMENT
 BEAM AXIAL                          0                4.018E-08                182
   INSTANCE: Instance A                                                                      

  NUMBER OF EQUATIONS =     1256     NUMBER OF FLOATING PT. OPERATIONS =  8.20E+06

     CHECK POINT   START OF SOLVER    

     CHECK POINT  END OF SOLVER       

       ELAPSED USER TIME (SEC)      =   0.0000    
       ELAPSED SYSTEM TIME (SEC)    =   0.0000    
       ELAPSED TOTAL CPU TIME (SEC) =   0.0000    
       ELAPSED WALLCLOCK TIME (SEC) =          0

               CONVERGENCE CHECKS FOR EQUILIBRIUM ITERATION     2


 AVERAGE FORCE                       257.       TIME AVG. FORCE        124.    
 LARGEST RESIDUAL FORCE            -1.249E-02   AT NODE        172   DOF  3
   INSTANCE: Instance A                                                                      
 LARGEST INCREMENT OF DISP.         5.599E-03   AT NODE        114   DOF  3
   INSTANCE: Instance A                                                                      
 LARGEST CORRECTION TO DISP.        4.794E-05   AT NODE        114   DOF  3
   INSTANCE: Instance A                                                                      
          THE FORCE     EQUILIBRIUM EQUATIONS HAVE CONVERGED

 AVERAGE MOMENT                      3.12       TIME AVG. MOMENT       1.43    
 LARGEST RESIDUAL MOMENT            2.845E-04   AT NODE          2   DOF  5
   INSTANCE: Instance A                                                                      
 LARGEST INCREMENT OF ROTATION     -2.688E-02   AT NODE        191   DOF  6
   INSTANCE: Instance A                                                                      
 LARGEST CORRECTION TO ROTATION     1.362E-04   AT NODE        191   DOF  6
   INSTANCE: Instance A                                                                      
          THE MOMENT    EQUILIBRIUM EQUATIONS HAVE CONVERGED

 COMPATIBILITY ERRORS:
    TYPE                NUMBER EXCEEDING TOLERANCE  MAXIMUM ERROR        IN ELEMENT
 BEAM AXIAL                          0                2.544E-10                182
   INSTANCE: Instance A                                                                      

 ITERATION SUMMARY FOR THE INCREMENT:   2 TOTAL ITERATIONS, OF WHICH
   0 ARE SEVERE DISCONTINUITY ITERATIONS AND  2 ARE EQUILIBRIUM ITERATIONS.

 TIME INCREMENT COMPLETED  5.000E-02,  FRACTION OF STEP COMPLETED  0.491    
 STEP TIME COMPLETED       0.491    ,  TOTAL TIME COMPLETED        0.491    


  INCREMENT    14 STARTS. ATTEMPT NUMBER  1, TIME INCREMENT  5.000E-02

  NUMBER OF EQUATIONS =     1256     NUMBER OF FLOATING PT. OPERATIONS =  8.20E+06

     CHECK POINT   START OF SOLVER    

     CHECK POINT  END OF SOLVER       

       ELAPSED USER TIME (SEC)      =   0.0000    
       ELAPSED SYSTEM TIME (SEC)    =   0.0000    
       ELAPSED TOTAL CPU TIME (SEC) =   0.0000    
       ELAPSED WALLCLOCK TIME (SEC) =          0

               CONVERGENCE CHECKS FOR EQUILIBRIUM ITERATION     1


 AVERAGE FORCE                       275.       TIME AVG. FORCE        135.    
 LARGEST RESIDUAL FORCE             0.576       AT NODE        172   DOF  3
   INSTANCE: Instance A                                                                      
 LARGEST INCREMENT OF DISP.         5.507E-03   AT NODE        114   DOF  3
   INSTANCE: Instance A                                                                      
 LARGEST CORRECTION TO DISP.        1.773E-04   AT NODE        191   DOF  2
   INSTANCE: Instance A                                                                      
 ESTIMATE OF DISP.    CORRECTION    8.985E-08
 FORCE     EQUILIB. ACCEPTED BASED ON SMALL RESIDUAL AND ESTIMATED CORRECTION

 AVERAGE MOMENT                      3.37       TIME AVG. MOMENT       1.57    
 LARGEST RESIDUAL MOMENT           -3.722E-02   AT NODE          1   DOF  6
   INSTANCE: Instance A                                                                      
 LARGEST INCREMENT OF ROTATION      2.609E-02   AT NODE          1   DOF  6
   INSTANCE: Instance A                                                                      
 LARGEST CORRECTION TO ROTATION     8.375E-04   AT NODE        191   DOF  4
   INSTANCE: Instance A                                                                      
          MOMENT    EQUILIBRIUM NOT ACHIEVED WITHIN TOLERANCE.

 COMPATIBILITY ERRORS:
    TYPE                NUMBER EXCEEDING TOLERANCE  MAXIMUM ERROR        IN ELEMENT
 BEAM AXIAL                          0                3.551E-08                182
   INSTANCE: Instance A                                                                      

  NUMBER OF EQUATIONS =     1256     NUMBER OF FLOATING PT. OPERATIONS =  8.20E+06

     CHECK POINT   START OF SOLVER    

     CHECK POINT  END OF SOLVER       

       ELAPSED USER TIME (SEC)      =   0.0000    
       ELAPSED SYSTEM TIME (SEC)    =   0.0000    
       ELAPSED TOTAL CPU TIME (SEC) =   0.0000    
       ELAPSED WALLCLOCK TIME (SEC) =          0

               CONVERGENCE CHECKS FOR EQUILIBRIUM ITERATION     2


 AVERAGE FORCE                       276.       TIME AVG. FORCE        135.    
 LARGEST RESIDUAL FORCE            -1.480E-02   AT NODE        172   DOF  3
   INSTANCE: Instance A                                                                      
 LARGEST INCREMENT OF DISP.         5.551E-03   AT NODE        114   DOF  3
   INSTANCE: Instance A                                                                      
 LARGEST CORRECTION TO DISP.        4.427E-05   AT NODE        114   DOF  3
   INSTANCE: Instance A                                                                      
          THE FORCE     EQUILIBRIUM EQUATIONS HAVE CONVERGED

 AVERAGE MOMENT                      3.39       TIME AVG. MOMENT       1.57    
 LARGEST RESIDUAL MOMENT           -2.898E-04   AT NODE        192   DOF  5
   INSTANCE: Instance A                                                                      
 LARGEST INCREMENT OF ROTATION      2.596E-02   AT NODE          1   DOF  6
   INSTANCE: Instance A                                                                      
 LARGEST CORRECTION TO ROTATION     1.348E-04   AT NODE        191   DOF  6
   INSTANCE: Instance A                                                                      
          THE MOMENT    EQUILIBRIUM EQUATIONS HAVE CONVERGED

 COMPATIBILITY ERRORS:
    TYPE                NUMBER EXCEEDING TOLERANCE  MAXIMUM ERROR        IN ELEMENT
 BEAM AXIAL                          0                2.050E-10                182
   INSTANCE: Instance A                                                                      

 ITERATION SUMMARY FOR THE INCREMENT:   2 TOTAL ITERATIONS, OF WHICH
   0 ARE SEVERE DISCONTINUITY ITERATIONS AND  2 ARE EQUILIBRIUM ITERATIONS.

 TIME INCREMENT COMPLETED  5.000E-02,  FRACTION OF STEP COMPLETED  0.541    
 STEP TIME COMPLETED       0.541    ,  TOTAL TIME COMPLETED        0.541    


  INCREMENT    15 STARTS. ATTEMPT NUMBER  1, TIME INCREMENT  5.000E-02

  NUMBER OF EQUATIONS =     1256     NUMBER OF FLOATING PT. OPERATIONS =  8.20E+06

     CHECK POINT   START OF SOLVER    

     CHECK POINT  END OF SOLVER       

       ELAPSED USER TIME (SEC)      =   0.0000    
       ELAPSED SYSTEM TIME (SEC)    =   0.0000    
       ELAPSED TOTAL CPU TIME (SEC) =   0.0000    
       ELAPSED WALLCLOCK TIME (SEC) =          0

               CONVERGENCE CHECKS FOR EQUILIBRIUM ITERATION     1


 AVERAGE FORCE                       293.       TIME AVG. FORCE        145.    
 LARGEST RESIDUAL FORCE             0.508       AT NODE        172   DOF  3
   INSTANCE: Instance A                                                                      
 LARGEST INCREMENT OF DISP.         5.471E-03   AT NODE        114   DOF  3
   INSTANCE: Instance A                                                                      
 LARGEST CORRECTION TO DISP.        1.635E-04   AT NODE          1   DOF  2
   INSTANCE: Instance A                                                                      
 ESTIMATE OF DISP.    CORRECTION    7.738E-08
 FORCE     EQUILIB. ACCEPTED BASED ON SMALL RESIDUAL AND ESTIMATED CORRECTION

 AVERAGE MOMENT                      3.63       TIME AVG. MOMENT       1.71    
 LARGEST RESIDUAL MOMENT           -3.566E-02   AT NODE          1   DOF  6
   INSTANCE: Instance A                                                                      
 LARGEST INCREMENT OF ROTATION     -2.524E-02   AT NODE        191   DOF  6
   INSTANCE: Instance A                                                                      
 LARGEST CORRECTION TO ROTATION     7.845E-04   AT NODE          1   DOF  4
   INSTANCE: Instance A                                                                      
          MOMENT    EQUILIBRIUM NOT ACHIEVED WITHIN TOLERANCE.

 COMPATIBILITY ERRORS:
    TYPE                NUMBER EXCEEDING TOLERANCE  MAXIMUM ERROR        IN ELEMENT
 BEAM AXIAL                          0                3.152E-08                181
   INSTANCE: Instance A                                                                      

  NUMBER OF EQUATIONS =     1256     NUMBER OF FLOATING PT. OPERATIONS =  8.20E+06

     CHECK POINT   START OF SOLVER    

     CHECK POINT  END OF SOLVER       

       ELAPSED USER TIME (SEC)      =   0.0000    
       ELAPSED SYSTEM TIME (SEC)    =   0.0000    
       ELAPSED TOTAL CPU TIME (SEC) =   0.0000    
       ELAPSED WALLCLOCK TIME (SEC) =          0

               CONVERGENCE CHECKS FOR EQUILIBRIUM ITERATION     2


 AVERAGE FORCE                       293.       TIME AVG. FORCE        145.    
 LARGEST RESIDUAL FORCE            -1.671E-02   AT NODE         20   DOF  3
   INSTANCE: Instance A                                                                      
 LARGEST INCREMENT OF DISP.         5.512E-03   AT NODE        114   DOF  3
   INSTANCE: Instance A                                                                      
 LARGEST CORRECTION TO DISP.        4.104E-05   AT NODE        114   DOF  3
   INSTANCE: Instance A                                                                      
          THE FORCE     EQUILIBRIUM EQUATIONS HAVE CONVERGED

 AVERAGE MOMENT                      3.64       TIME AVG. MOMENT       1.71    
 LARGEST RESIDUAL MOMENT            2.928E-04   AT NODE          2   DOF  5
   INSTANCE: Instance A                                                                      
 LARGEST INCREMENT OF ROTATION     -2.511E-02   AT NODE        191   DOF  6
   INSTANCE: Instance A                                                                      
 LARGEST CORRECTION TO ROTATION     1.330E-04   AT NODE        191   DOF  6
   INSTANCE: Instance A                                                                      
          THE MOMENT    EQUILIBRIUM EQUATIONS HAVE CONVERGED

 COMPATIBILITY ERRORS:
    TYPE                NUMBER EXCEEDING TOLERANCE  MAXIMUM ERROR        IN ELEMENT
 BEAM AXIAL                          0                1.673E-10                181
   INSTANCE: Instance A                                                                      

 ITERATION SUMMARY FOR THE INCREMENT:   2 TOTAL ITERATIONS, OF WHICH
   0 ARE SEVERE DISCONTINUITY ITERATIONS AND  2 ARE EQUILIBRIUM ITERATIONS.

 TIME INCREMENT COMPLETED  5.000E-02,  FRACTION OF STEP COMPLETED  0.591    
 STEP TIME COMPLETED       0.591    ,  TOTAL TIME COMPLETED        0.591    


  INCREMENT    16 STARTS. ATTEMPT NUMBER  1, TIME INCREMENT  5.000E-02

  NUMBER OF EQUATIONS =     1256     NUMBER OF FLOATING PT. OPERATIONS =  8.20E+06

     CHECK POINT   START OF SOLVER    

     CHECK POINT  END OF SOLVER       

       ELAPSED USER TIME (SEC)      =   0.0000    
       ELAPSED SYSTEM TIME (SEC)    =   0.0000    
       ELAPSED TOTAL CPU TIME (SEC) =   0.0000    
       ELAPSED WALLCLOCK TIME (SEC) =          0

               CONVERGENCE CHECKS FOR EQUILIBRIUM ITERATION     1


 AVERAGE FORCE                       310.       TIME AVG. FORCE        155.    
 LARGEST RESIDUAL FORCE             0.450       AT NODE        172   DOF  3
   INSTANCE: Instance A                                                                      
 LARGEST INCREMENT OF DISP.         5.440E-03   AT NODE        114   DOF  3
   INSTANCE: Instance A                                                                      
 LARGEST CORRECTION TO DISP.        1.512E-04   AT NODE        191   DOF  2
   INSTANCE: Instance A                                                                      
 ESTIMATE OF DISP.    CORRECTION    6.723E-08
 FORCE     EQUILIB. ACCEPTED BASED ON SMALL RESIDUAL AND ESTIMATED CORRECTION

 AVERAGE MOMENT                      3.87       TIME AVG. MOMENT       1.84    
 LARGEST RESIDUAL MOMENT            3.418E-02   AT NODE        191   DOF  6
   INSTANCE: Instance A                                                                      
 LARGEST INCREMENT OF ROTATION      2.444E-02   AT NODE          1   DOF  6
   INSTANCE: Instance A                                                                      
 LARGEST CORRECTION TO ROTATION     7.373E-04   AT NODE        191   DOF  4
   INSTANCE: Instance A                                                                      
          MOMENT    EQUILIBRIUM NOT ACHIEVED WITHIN TOLERANCE.

 COMPATIBILITY ERRORS:
    TYPE                NUMBER EXCEEDING TOLERANCE  MAXIMUM ERROR        IN ELEMENT
 BEAM AXIAL                          0                2.810E-08                181
   INSTANCE: Instance A                                                                      

  NUMBER OF EQUATIONS =     1256     NUMBER OF FLOATING PT. OPERATIONS =  8.20E+06

     CHECK POINT   START OF SOLVER    

     CHECK POINT  END OF SOLVER       

       ELAPSED USER TIME (SEC)      =   0.0000    
       ELAPSED SYSTEM TIME (SEC)    =   0.0000    
       ELAPSED TOTAL CPU TIME (SEC) =   0.0000    
       ELAPSED WALLCLOCK TIME (SEC) =          0

               CONVERGENCE CHECKS FOR EQUILIBRIUM ITERATION     2


 AVERAGE FORCE                       310.       TIME AVG. FORCE        155.    
 LARGEST RESIDUAL FORCE            -1.830E-02   AT NODE        172   DOF  3
   INSTANCE: Instance A                                                                      
 LARGEST INCREMENT OF DISP.         5.478E-03   AT NODE        114   DOF  3
   INSTANCE: Instance A                                                                      
 LARGEST CORRECTION TO DISP.        3.818E-05   AT NODE        114   DOF  3
   INSTANCE: Instance A                                                                      
          THE FORCE     EQUILIBRIUM EQUATIONS HAVE CONVERGED

 AVERAGE MOMENT                      3.88       TIME AVG. MOMENT       1.84    
 LARGEST RESIDUAL MOMENT           -2.939E-04   AT NODE        192   DOF  5
   INSTANCE: Instance A                                                                      
 LARGEST INCREMENT OF ROTATION      2.431E-02   AT NODE          1   DOF  6
   INSTANCE: Instance A                                                                      
 LARGEST CORRECTION TO ROTATION    -1.309E-04   AT NODE          1   DOF  6
   INSTANCE: Instance A                                                                      
          THE MOMENT    EQUILIBRIUM EQUATIONS HAVE CONVERGED

 COMPATIBILITY ERRORS:
    TYPE                NUMBER EXCEEDING TOLERANCE  MAXIMUM ERROR        IN ELEMENT
 BEAM AXIAL                          0                1.381E-10                182
   INSTANCE: Instance A                                                                      

 ITERATION SUMMARY FOR THE INCREMENT:   2 TOTAL ITERATIONS, OF WHICH
   0 ARE SEVERE DISCONTINUITY ITERATIONS AND  2 ARE EQUILIBRIUM ITERATIONS.

 TIME INCREMENT COMPLETED  5.000E-02,  FRACTION OF STEP COMPLETED  0.641    
 STEP TIME COMPLETED       0.641    ,  TOTAL TIME COMPLETED        0.641    


  INCREMENT    17 STARTS. ATTEMPT NUMBER  1, TIME INCREMENT  5.000E-02

  NUMBER OF EQUATIONS =     1256     NUMBER OF FLOATING PT. OPERATIONS =  8.20E+06

     CHECK POINT   START OF SOLVER    

     CHECK POINT  END OF SOLVER       

       ELAPSED USER TIME (SEC)      =   0.0000    
       ELAPSED SYSTEM TIME (SEC)    =   0.0000    
       ELAPSED TOTAL CPU TIME (SEC) =   0.0000    
       ELAPSED WALLCLOCK TIME (SEC) =          0

               CONVERGENCE CHECKS FOR EQUILIBRIUM ITERATION     1


 AVERAGE FORCE                       326.       TIME AVG. FORCE        166.    
 LARGEST RESIDUAL FORCE             0.402       AT NODE         20   DOF  3
   INSTANCE: Instance A                                                                      
 LARGEST INCREMENT OF DISP.         5.413E-03   AT NODE        114   DOF  3
   INSTANCE: Instance A                                                                      
 LARGEST CORRECTION TO DISP.        1.401E-04   AT NODE        212   DOF  2
   INSTANCE: Instance A                                                                      
 ESTIMATE OF DISP.    CORRECTION    5.885E-08
 FORCE     EQUILIB. ACCEPTED BASED ON SMALL RESIDUAL AND ESTIMATED CORRECTION

 AVERAGE MOMENT                      4.12       TIME AVG. MOMENT       1.98    
 LARGEST RESIDUAL MOMENT           -3.279E-02   AT NODE          1   DOF  6
   INSTANCE: Instance A                                                                      
 LARGEST INCREMENT OF ROTATION     -2.369E-02   AT NODE        191   DOF  6
   INSTANCE: Instance A                                                                      
 LARGEST CORRECTION TO ROTATION     6.951E-04   AT NODE        191   DOF  4
   INSTANCE: Instance A                                                                      
          MOMENT    EQUILIBRIUM NOT ACHIEVED WITHIN TOLERANCE.

 COMPATIBILITY ERRORS:
    TYPE                NUMBER EXCEEDING TOLERANCE  MAXIMUM ERROR        IN ELEMENT
 BEAM AXIAL                          0                2.514E-08                182
   INSTANCE: Instance A                                                                      

  NUMBER OF EQUATIONS =     1256     NUMBER OF FLOATING PT. OPERATIONS =  8.20E+06

     CHECK POINT   START OF SOLVER    

     CHECK POINT  END OF SOLVER       

       ELAPSED USER TIME (SEC)      =   0.0000    
       ELAPSED SYSTEM TIME (SEC)    =   0.0000    
       ELAPSED TOTAL CPU TIME (SEC) =   0.0000    
       ELAPSED WALLCLOCK TIME (SEC) =          0

               CONVERGENCE CHECKS FOR EQUILIBRIUM ITERATION     2


 AVERAGE FORCE                       327.       TIME AVG. FORCE        166.    
 LARGEST RESIDUAL FORCE            -1.961E-02   AT NODE         20   DOF  3
   INSTANCE: Instance A                                                                      
 LARGEST INCREMENT OF DISP.         5.448E-03   AT NODE        114   DOF  3
   INSTANCE: Instance A                                                                      
 LARGEST CORRECTION TO DISP.        3.561E-05   AT NODE        114   DOF  3
   INSTANCE: Instance A                                                                      
          THE FORCE     EQUILIBRIUM EQUATIONS HAVE CONVERGED

 AVERAGE MOMENT                      4.13       TIME AVG. MOMENT       1.98    
 LARGEST RESIDUAL MOMENT           -2.933E-04   AT NODE        192   DOF  5
   INSTANCE: Instance A                                                                      
 LARGEST INCREMENT OF ROTATION     -2.356E-02   AT NODE        191   DOF  6
   INSTANCE: Instance A                                                                      
 LARGEST CORRECTION TO ROTATION    -1.284E-04   AT NODE          1   DOF  6
   INSTANCE: Instance A                                                                      
          THE MOMENT    EQUILIBRIUM EQUATIONS HAVE CONVERGED

[...]
   INSTANCE: Instance A                                                                      
          MOMENT    EQUILIBRIUM NOT ACHIEVED WITHIN TOLERANCE.

 COMPATIBILITY ERRORS:
    TYPE                NUMBER EXCEEDING TOLERANCE  MAXIMUM ERROR        IN ELEMENT
 BEAM AXIAL                          0                2.567E-06                181
   INSTANCE: Instance A                                                                      

  NUMBER OF EQUATIONS =     1256     NUMBER OF FLOATING PT. OPERATIONS =  8.20E+06

     CHECK POINT   START OF SOLVER    

     CHECK POINT  END OF SOLVER       

       ELAPSED USER TIME (SEC)      =   0.0000    
       ELAPSED SYSTEM TIME (SEC)    =   0.0000    
       ELAPSED TOTAL CPU TIME (SEC) =   0.0000    
       ELAPSED WALLCLOCK TIME (SEC) =          0

               CONVERGENCE CHECKS FOR EQUILIBRIUM ITERATION     3


 AVERAGE FORCE                      1.364E+03   TIME AVG. FORCE       1.141E+03
 LARGEST RESIDUAL FORCE            -0.304       AT NODE        133   DOF  2
   INSTANCE: Instance A                                                                      
 LARGEST INCREMENT OF DISP.        -8.919E-03   AT NODE        209   DOF  3
   INSTANCE: Instance A                                                                      
 LARGEST CORRECTION TO DISP.       -2.121E-04   AT NODE        114   DOF  1
   INSTANCE: Instance A                                                                      
 ESTIMATE OF DISP.    CORRECTION   -5.550E-06
 FORCE     EQUILIB. ACCEPTED BASED ON SMALL RESIDUAL AND ESTIMATED CORRECTION

 AVERAGE MOMENT                      5.61       TIME AVG. MOMENT       4.62    
 LARGEST RESIDUAL MOMENT           -1.729E-03   AT NODE         68   DOF  5
   INSTANCE: Instance A                                                                      
 LARGEST INCREMENT OF ROTATION      2.147E-02   AT NODE        197   DOF  5
   INSTANCE: Instance A                                                                      
 LARGEST CORRECTION TO ROTATION     5.009E-04   AT NODE         80   DOF  6
   INSTANCE: Instance A                                                                      
 ESTIMATE OF ROTATION CORRECTION    1.306E-05
 MOMENT    EQUILIB. ACCEPTED BASED ON SMALL RESIDUAL AND ESTIMATED CORRECTION

 COMPATIBILITY ERRORS:
    TYPE                NUMBER EXCEEDING TOLERANCE  MAXIMUM ERROR        IN ELEMENT
 BEAM AXIAL                          0                6.314E-08                181
   INSTANCE: Instance A                                                                      

 ITERATION SUMMARY FOR THE INCREMENT:   3 TOTAL ITERATIONS, OF WHICH
   0 ARE SEVERE DISCONTINUITY ITERATIONS AND  3 ARE EQUILIBRIUM ITERATIONS.

 TIME INCREMENT COMPLETED  5.000E-02,  FRACTION OF STEP COMPLETED  0.891    
 STEP TIME COMPLETED       0.891    ,  TOTAL TIME COMPLETED         15.9    


  INCREMENT    22 STARTS. ATTEMPT NUMBER  1, TIME INCREMENT  5.000E-02

  NUMBER OF EQUATIONS =     1256     NUMBER OF FLOATING PT. OPERATIONS =  8.20E+06

     CHECK POINT   START OF SOLVER    

     CHECK POINT  END OF SOLVER       

       ELAPSED USER TIME (SEC)      =   0.0000    
       ELAPSED SYSTEM TIME (SEC)    =   0.0000    
       ELAPSED TOTAL CPU TIME (SEC) =   0.0000    
       ELAPSED WALLCLOCK TIME (SEC) =          0
 

 ***WARNING: THE SYSTEM MATRIX HAS 1 NEGATIVE EIGENVALUES.
             EXPLANATIONS ARE SUGGESTED AFTER THE FIRST OCCURRENCE OF THIS MESSAGE.

               CONVERGENCE CHECKS FOR EQUILIBRIUM ITERATION     1


 AVERAGE FORCE                      1.431E+03   TIME AVG. FORCE       1.154E+03
 LARGEST RESIDUAL FORCE             -34.6       AT NODE        211   DOF  1
   INSTANCE: Instance A                                                                      
 LARGEST INCREMENT OF DISP.        -8.927E-03   AT NODE        209   DOF  3
   INSTANCE: Instance A                                                                      
 LARGEST CORRECTION TO DISP.        1.717E-03   AT NODE         19   DOF  1
   INSTANCE: Instance A                                                                      
          FORCE     EQUILIBRIUM NOT ACHIEVED WITHIN TOLERANCE.

 AVERAGE MOMENT                      5.74       TIME AVG. MOMENT       4.67    
 LARGEST RESIDUAL MOMENT            0.190       AT NODE        141   DOF  4
   INSTANCE: Instance A                                                                      
 LARGEST INCREMENT OF ROTATION      2.537E-02   AT NODE        197   DOF  5
   INSTANCE: Instance A                                                                      
 LARGEST CORRECTION TO ROTATION     4.241E-03   AT NODE          1   DOF  5
   INSTANCE: Instance A                                                                      
          MOMENT    EQUILIBRIUM NOT ACHIEVED WITHIN TOLERANCE.

 COMPATIBILITY ERRORS:
    TYPE                NUMBER EXCEEDING TOLERANCE  MAXIMUM ERROR        IN ELEMENT
 BEAM AXIAL                          0                7.348E-06                181
   INSTANCE: Instance A                                                                      

  NUMBER OF EQUATIONS =     1256     NUMBER OF FLOATING PT. OPERATIONS =  8.20E+06

     CHECK POINT   START OF SOLVER    

     CHECK POINT  END OF SOLVER       

       ELAPSED USER TIME (SEC)      =  0.10000    
       ELAPSED SYSTEM TIME (SEC)    =   0.0000    
       ELAPSED TOTAL CPU TIME (SEC) =  0.10000    
       ELAPSED WALLCLOCK TIME (SEC) =          0

               CONVERGENCE CHECKS FOR EQUILIBRIUM ITERATION     2


 AVERAGE FORCE                      1.430E+03   TIME AVG. FORCE       1.154E+03
 LARGEST RESIDUAL FORCE              20.7       AT NODE         96   DOF  3
   INSTANCE: Instance A                                                                      
 LARGEST INCREMENT OF DISP.        -8.389E-03   AT NODE        209   DOF  3
   INSTANCE: Instance A                                                                      
 LARGEST CORRECTION TO DISP.       -1.301E-03   AT NODE        209   DOF  1
   INSTANCE: Instance A                                                                      
          FORCE     EQUILIBRIUM NOT ACHIEVED WITHIN TOLERANCE.

 AVERAGE MOMENT                      5.75       TIME AVG. MOMENT       4.67    
 LARGEST RESIDUAL MOMENT            0.116       AT NODE        179   DOF  4
   INSTANCE: Instance A                                                                      
 LARGEST INCREMENT OF ROTATION      2.246E-02   AT NODE        197   DOF  5
   INSTANCE: Instance A                                                                      
 LARGEST CORRECTION TO ROTATION    -2.909E-03   AT NODE        197   DOF  5
   INSTANCE: Instance A                                                                      
          MOMENT    EQUILIBRIUM NOT ACHIEVED WITHIN TOLERANCE.

 COMPATIBILITY ERRORS:
    TYPE                NUMBER EXCEEDING TOLERANCE  MAXIMUM ERROR        IN ELEMENT
 BEAM AXIAL                          0                5.790E-06                181
   INSTANCE: Instance A                                                                      

  NUMBER OF EQUATIONS =     1256     NUMBER OF FLOATING PT. OPERATIONS =  8.20E+06

     CHECK POINT   START OF SOLVER    

     CHECK POINT  END OF SOLVER       

       ELAPSED USER TIME (SEC)      =   0.0000    
       ELAPSED SYSTEM TIME (SEC)    =   0.0000    
       ELAPSED TOTAL CPU TIME (SEC) =   0.0000    
       ELAPSED WALLCLOCK TIME (SEC) =          0

               CONVERGENCE CHECKS FOR EQUILIBRIUM ITERATION     3


 AVERAGE FORCE                      1.433E+03   TIME AVG. FORCE       1.154E+03
 LARGEST RESIDUAL FORCE            -0.546       AT NODE        208   DOF  1
   INSTANCE: Instance A                                                                      
 LARGEST INCREMENT OF DISP.        -8.334E-03   AT NODE        209   DOF  3
   INSTANCE: Instance A                                                                      
 LARGEST CORRECTION TO DISP.       -2.528E-04   AT NODE         19   DOF  3
   INSTANCE: Instance A                                                                      
 ESTIMATE OF DISP.    CORRECTION    6.658E-06
 FORCE     EQUILIB. ACCEPTED BASED ON SMALL RESIDUAL AND ESTIMATED CORRECTION

 AVERAGE MOMENT                      5.76       TIME AVG. MOMENT       4.67    
 LARGEST RESIDUAL MOMENT            4.485E-03   AT NODE        132   DOF  4
   INSTANCE: Instance A                                                                      
 LARGEST INCREMENT OF ROTATION      2.215E-02   AT NODE        197   DOF  5
   INSTANCE: Instance A                                                                      
 LARGEST CORRECTION TO ROTATION    -5.434E-04   AT NODE        114   DOF  5
   INSTANCE: Instance A                                                                      
 ESTIMATE OF ROTATION CORRECTION   -2.107E-05
 MOMENT    EQUILIB. ACCEPTED BASED ON SMALL RESIDUAL AND ESTIMATED CORRECTION

 COMPATIBILITY ERRORS:
    TYPE                NUMBER EXCEEDING TOLERANCE  MAXIMUM ERROR        IN ELEMENT
 BEAM AXIAL                          0                1.130E-07                181
   INSTANCE: Instance A                                                                      

 ITERATION SUMMARY FOR THE INCREMENT:   3 TOTAL ITERATIONS, OF WHICH
   0 ARE SEVERE DISCONTINUITY ITERATIONS AND  3 ARE EQUILIBRIUM ITERATIONS.

 TIME INCREMENT COMPLETED  5.000E-02,  FRACTION OF STEP COMPLETED  0.941    
 STEP TIME COMPLETED       0.941    ,  TOTAL TIME COMPLETED         15.9    


  INCREMENT    23 STARTS. ATTEMPT NUMBER  1, TIME INCREMENT  5.000E-02

  NUMBER OF EQUATIONS =     1256     NUMBER OF FLOATING PT. OPERATIONS =  8.20E+06

     CHECK POINT   START OF SOLVER    

     CHECK POINT  END OF SOLVER       

       ELAPSED USER TIME (SEC)      =   0.0000    
       ELAPSED SYSTEM TIME (SEC)    =   0.0000    
       ELAPSED TOTAL CPU TIME (SEC) =   0.0000    
       ELAPSED WALLCLOCK TIME (SEC) =          0
 

 ***WARNING: THE SYSTEM MATRIX HAS 2 NEGATIVE EIGENVALUES.
             EXPLANATIONS ARE SUGGESTED AFTER THE FIRST OCCURRENCE OF THIS MESSAGE.

               CONVERGENCE CHECKS FOR EQUILIBRIUM ITERATION     1


 AVERAGE FORCE                      1.508E+03   TIME AVG. FORCE       1.170E+03
 LARGEST RESIDUAL FORCE             -9.56       AT NODE        211   DOF  1
   INSTANCE: Instance A                                                                      
 LARGEST INCREMENT OF DISP.        -7.627E-03   AT NODE        209   DOF  3
   INSTANCE: Instance A                                                                      
 LARGEST CORRECTION TO DISP.        1.058E-03   AT NODE         76   DOF  1
   INSTANCE: Instance A                                                                      
          FORCE     EQUILIBRIUM NOT ACHIEVED WITHIN TOLERANCE.

 AVERAGE MOMENT                      5.91       TIME AVG. MOMENT       4.73    
 LARGEST RESIDUAL MOMENT           -5.808E-02   AT NODE        178   DOF  5
   INSTANCE: Instance A                                                                      
 LARGEST INCREMENT OF ROTATION      2.350E-02   AT NODE        197   DOF  5
   INSTANCE: Instance A                                                                      
 LARGEST CORRECTION TO ROTATION     2.430E-03   AT NODE        198   DOF  4
   INSTANCE: Instance A                                                                      
          MOMENT    EQUILIBRIUM NOT ACHIEVED WITHIN TOLERANCE.

 COMPATIBILITY ERRORS:
    TYPE                NUMBER EXCEEDING TOLERANCE  MAXIMUM ERROR        IN ELEMENT
 BEAM AXIAL                          0                1.191E-06                182
   INSTANCE: Instance A                                                                      

  NUMBER OF EQUATIONS =     1256     NUMBER OF FLOATING PT. OPERATIONS =  8.20E+06

     CHECK POINT   START OF SOLVER    

     CHECK POINT  END OF SOLVER       

       ELAPSED USER TIME (SEC)      =   0.0000    
       ELAPSED SYSTEM TIME (SEC)    =   0.0000    
       ELAPSED TOTAL CPU TIME (SEC) =   0.0000    
       ELAPSED WALLCLOCK TIME (SEC) =          0

               CONVERGENCE CHECKS FOR EQUILIBRIUM ITERATION     2


 AVERAGE FORCE                      1.507E+03   TIME AVG. FORCE       1.170E+03
 LARGEST RESIDUAL FORCE             -5.19       AT NODE        211   DOF  1
   INSTANCE: Instance A                                                                      
 LARGEST INCREMENT OF DISP.        -7.634E-03   AT NODE        209   DOF  3
   INSTANCE: Instance A                                                                      
 LARGEST CORRECTION TO DISP.       -8.924E-04   AT NODE        209   DOF  1
   INSTANCE: Instance A                                                                      
          DISP.    CORRECTION TOO LARGE COMPARED TO DISP.    INCREMENT

 AVERAGE MOMENT                      5.91       TIME AVG. MOMENT       4.73    
 LARGEST RESIDUAL MOMENT            4.118E-02   AT NODE        132   DOF  4
   INSTANCE: Instance A                                                                      
 LARGEST INCREMENT OF ROTATION      2.242E-02   AT NODE        197   DOF  5
   INSTANCE: Instance A                                                                      
 LARGEST CORRECTION TO ROTATION     1.819E-03   AT NODE        118   DOF  6
   INSTANCE: Instance A                                                                      
          MOMENT    EQUILIBRIUM NOT ACHIEVED WITHIN TOLERANCE.

 COMPATIBILITY ERRORS:
    TYPE                NUMBER EXCEEDING TOLERANCE  MAXIMUM ERROR        IN ELEMENT
 BEAM AXIAL                          0                1.512E-06                181
   INSTANCE: Instance A                                                                      

  NUMBER OF EQUATIONS =     1256     NUMBER OF FLOATING PT. OPERATIONS =  8.20E+06

     CHECK POINT   START OF SOLVER    

     CHECK POINT  END OF SOLVER       

       ELAPSED USER TIME (SEC)      =   0.0000    
       ELAPSED SYSTEM TIME (SEC)    =   0.0000    
       ELAPSED TOTAL CPU TIME (SEC) =   0.0000    
       ELAPSED WALLCLOCK TIME (SEC) =          0

               CONVERGENCE CHECKS FOR EQUILIBRIUM ITERATION     3


 AVERAGE FORCE                      1.511E+03   TIME AVG. FORCE       1.170E+03
 LARGEST RESIDUAL FORCE            -2.545E-02   AT NODE         76   DOF  2
   INSTANCE: Instance A                                                                      
 LARGEST INCREMENT OF DISP.        -7.655E-03   AT NODE        209   DOF  3
   INSTANCE: Instance A                                                                      
 LARGEST CORRECTION TO DISP.       -6.080E-05   AT NODE        209   DOF  1
   INSTANCE: Instance A                                                                      
          THE FORCE     EQUILIBRIUM EQUATIONS HAVE CONVERGED

 AVERAGE MOMENT                      5.94       TIME AVG. MOMENT       4.73    
 LARGEST RESIDUAL MOMENT           -2.920E-04   AT NODE         98   DOF  6
   INSTANCE: Instance A                                                                      
 LARGEST INCREMENT OF ROTATION      2.241E-02   AT NODE        197   DOF  5
   INSTANCE: Instance A                                                                      
 LARGEST CORRECTION TO ROTATION     1.409E-04   AT NODE         80   DOF  6
   INSTANCE: Instance A                                                                      
          THE MOMENT    EQUILIBRIUM EQUATIONS HAVE CONVERGED

 COMPATIBILITY ERRORS:
    TYPE                NUMBER EXCEEDING TOLERANCE  MAXIMUM ERROR        IN ELEMENT
 BEAM AXIAL                          0                5.377E-09                181
   INSTANCE: Instance A                                                                      

 ITERATION SUMMARY FOR THE INCREMENT:   3 TOTAL ITERATIONS, OF WHICH
   0 ARE SEVERE DISCONTINUITY ITERATIONS AND  3 ARE EQUILIBRIUM ITERATIONS.

 TIME INCREMENT COMPLETED  5.000E-02,  FRACTION OF STEP COMPLETED  0.991    
 STEP TIME COMPLETED       0.991    ,  TOTAL TIME COMPLETED         16.0    


  INCREMENT    24 STARTS. ATTEMPT NUMBER  1, TIME INCREMENT  8.750E-03

  NUMBER OF EQUATIONS =     1256     NUMBER OF FLOATING PT. OPERATIONS =  8.20E+06

     CHECK POINT   START OF SOLVER    

     CHECK POINT  END OF SOLVER       

       ELAPSED USER TIME (SEC)      =   0.0000    
       ELAPSED SYSTEM TIME (SEC)    =   0.0000    
       ELAPSED TOTAL CPU TIME (SEC) =   0.0000    
       ELAPSED WALLCLOCK TIME (SEC) =          0

               CONVERGENCE CHECKS FOR EQUILIBRIUM ITERATION     1


 AVERAGE FORCE                      1.528E+03   TIME AVG. FORCE       1.185E+03
 LARGEST RESIDUAL FORCE             0.480       AT NODE          2   DOF  1
   INSTANCE: Instance A                                                                      
 LARGEST INCREMENT OF DISP.        -1.406E-03   AT NODE        209   DOF  3
   INSTANCE: Instance A                                                                      
 LARGEST CORRECTION TO DISP.       -1.597E-04   AT NODE        133   DOF  1
   INSTANCE: Instance A                                                                      
 ESTIMATE OF DISP.    CORRECTION    1.168E-06
 FORCE     EQUILIB. ACCEPTED BASED ON SMALL RESIDUAL AND ESTIMATED CORRECTION

 AVERAGE MOMENT                      5.96       TIME AVG. MOMENT       4.78    
 LARGEST RESIDUAL MOMENT            5.176E-03   AT NODE         22   DOF  4
   INSTANCE: Instance A                                                                      
 LARGEST INCREMENT OF ROTATION      4.591E-03   AT NODE        197   DOF  5
   INSTANCE: Instance A                                                                      
 LARGEST CORRECTION TO ROTATION     1.871E-03   AT NODE          2   DOF  6
   INSTANCE: Instance A                                                                      
 ESTIMATE OF ROTATION CORRECTION   -2.412E-05
 MOMENT    EQUILIB. ACCEPTED BASED ON SMALL RESIDUAL AND ESTIMATED CORRECTION

 COMPATIBILITY ERRORS:
    TYPE                NUMBER EXCEEDING TOLERANCE  MAXIMUM ERROR        IN ELEMENT
 BEAM AXIAL                          0                7.077E-08                181
   INSTANCE: Instance A                                                                      

 ITERATION SUMMARY FOR THE INCREMENT:   1 TOTAL ITERATIONS, OF WHICH
   0 ARE SEVERE DISCONTINUITY ITERATIONS AND  1 ARE EQUILIBRIUM ITERATIONS.

 TIME INCREMENT COMPLETED  8.750E-03,  FRACTION OF STEP COMPLETED   1.00    
 STEP TIME COMPLETED        1.00    ,  TOTAL TIME COMPLETED         16.0    


          THE ANALYSIS HAS BEEN COMPLETED



     ANALYSIS SUMMARY:
     TOTAL OF        390  INCREMENTS
                       3  CUTBACKS IN AUTOMATIC INCREMENTATION
                     635  ITERATIONS INCLUDING CONTACT ITERATIONS IF PRESENT
                     635  PASSES THROUGH THE EQUATION SOLVER OF WHICH 
                     635  INVOLVE MATRIX DECOMPOSITION, INCLUDING
                       0  DECOMPOSITION(S) OF THE MASS MATRIX
                       1  REORDERING OF EQUATIONS TO MINIMIZE WAVEFRONT
                       0  ADDITIONAL RESIDUAL EVALUATIONS FOR LINE SEARCHES
                       0  ADDITIONAL OPERATOR EVALUATIONS FOR LINE SEARCHES
                       8  WARNING MESSAGES DURING USER INPUT PROCESSING
                      37  WARNING MESSAGES DURING ANALYSIS
                       0  ANALYSIS WARNINGS ARE NUMERICAL PROBLEM MESSAGES
                      37  ANALYSIS WARNINGS ARE NEGATIVE EIGENVALUE MESSAGES
                       0  ERROR MESSAGES



     JOB TIME SUMMARY
       USER TIME (SEC)      =   38.500    
       SYSTEM TIME (SEC)    =   5.9000    
       TOTAL CPU TIME (SEC) =   44.400    
       WALLCLOCK TIME (SEC) =         50
