1

   Abaqus 6.12-1                                  Date 16-déc.-2016   Time 10:17:34
   For use by  under license from Dassault Systemes or its subsidiary.

                                                                                 
                                                                                 
 STEP    1     INCREMENT     1     STEP TIME    0.00    


                        S T E P       1     S T A T I C   A N A L Y S I S


                                                                                          

     AUTOMATIC TIME CONTROL WITH -
          A SUGGESTED INITIAL TIME INCREMENT OF                1.000E-02
          AND A TOTAL TIME PERIOD OF                            1.00    
          THE MINIMUM TIME INCREMENT ALLOWED IS                1.000E-06
          THE MAXIMUM TIME INCREMENT ALLOWED IS                5.000E-02

     LINEAR EQUATION SOLVER TYPE         DIRECT SPARSE

 CONVERGENCE TOLERANCE PARAMETERS FOR FORCE    
     CRITERION FOR RESIDUAL FORCE     FOR A NONLINEAR PROBLEM          5.000E-03
     CRITERION FOR DISP.    CORRECTION IN A NONLINEAR PROBLEM          1.000E-02
     INITIAL VALUE OF TIME AVERAGE FORCE                               1.000E-02
     AVERAGE FORCE     IS TIME AVERAGE FORCE    
     ALTERNATE CRIT. FOR RESIDUAL FORCE     FOR A NONLINEAR PROBLEM    2.000E-02
     CRITERION FOR ZERO FORCE     RELATIVE TO TIME AVRG. FORCE         1.000E-05
     CRITERION FOR RESIDUAL FORCE     WHEN THERE IS ZERO FLUX          1.000E-05
     CRITERION FOR DISP.    CORRECTION WHEN THERE IS ZERO FLUX         1.000E-03
     CRITERION FOR RESIDUAL FORCE     FOR A LINEAR INCREMENT           1.000E-08
     FIELD CONVERSION RATIO                                             1.00    
     CRITERION FOR ZERO FORCE     REL. TO TIME AVRG. MAX. FORCE        1.000E-05
     CRITERION FOR ZERO DISP.    RELATIVE TO CHARACTERISTIC LENGTH     1.000E-08

 CONVERGENCE TOLERANCE PARAMETERS FOR MOMENT   
     CRITERION FOR RESIDUAL MOMENT    FOR A NONLINEAR PROBLEM          5.000E-03
     CRITERION FOR ROTATION CORRECTION IN A NONLINEAR PROBLEM          1.000E-02
     INITIAL VALUE OF TIME AVERAGE MOMENT                              1.000E-02
     AVERAGE MOMENT    IS TIME AVERAGE MOMENT   
     ALTERNATE CRIT. FOR RESIDUAL MOMENT    FOR A NONLINEAR PROBLEM    2.000E-02
     CRITERION FOR ZERO MOMENT    RELATIVE TO TIME AVRG. MOMENT        1.000E-05
     CRITERION FOR RESIDUAL MOMENT    WHEN THERE IS ZERO FLUX          1.000E-05
     CRITERION FOR ROTATION CORRECTION WHEN THERE IS ZERO FLUX         1.000E-03
     CRITERION FOR RESIDUAL MOMENT    FOR A LINEAR INCREMENT           1.000E-08
     FIELD CONVERSION RATIO                                             1.00    
     CRITERION FOR ZERO MOMENT    REL. TO TIME AVRG. MAX. MOMENT       1.000E-05

     VOLUMETRIC STRAIN COMPATIBILITY TOLERANCE FOR HYBRID SOLIDS       1.000E-05
     AXIAL STRAIN COMPATIBILITY TOLERANCE FOR HYBRID BEAMS             1.000E-05
     TRANS. SHEAR STRAIN COMPATIBILITY TOLERANCE FOR HYBRID BEAMS      1.000E-05
     SOFT CONTACT CONSTRAINT COMPATIBILITY TOLERANCE FOR P>P0          5.000E-03
     SOFT CONTACT CONSTRAINT COMPATIBILITY TOLERANCE FOR P=0.0         0.100    
     CONTACT FORCE ERROR TOLERANCE FOR CONVERT SDI=YES                 1.00    
     DISPLACEMENT COMPATIBILITY TOLERANCE FOR DCOUP ELEMENTS           1.000E-05
     ROTATION COMPATIBILITY TOLERANCE FOR DCOUP ELEMENTS               1.000E-05

 EQUILIBRIUM WILL BE CHECKED FOR SEVERE DISCONTINUITY ITERATIONS

 TIME INCREMENTATION CONTROL PARAMETERS:
     FIRST EQUILIBRIUM ITERATION FOR CONSECUTIVE DIVERGENCE CHECK              4
     EQUILIBRIUM ITERATION AT WHICH LOG. CONVERGENCE RATE CHECK BEGINS         8
     EQUILIBRIUM ITERATION AFTER WHICH ALTERNATE RESIDUAL IS USED              9
     MAXIMUM EQUILIBRIUM ITERATIONS ALLOWED                                   16
     EQUILIBRIUM ITERATION COUNT FOR CUT-BACK IN NEXT INCREMENT               10
     MAXIMUM EQUILIB. ITERS IN TWO INCREMENTS FOR TIME INCREMENT INCREASE      4
     MAXIMUM ITERATIONS FOR SEVERE DISCONTINUITIES                            50
     MAXIMUM CUT-BACKS ALLOWED IN AN INCREMENT                                 5
     MAXIMUM DISCON. ITERS IN TWO INCREMENTS FOR TIME INCREMENT INCREASE      50
     MAXIMUM CONTACT AUGMENTATIONS FOR *SURFACE BEHAVIOR,AUGMENTED LAGRANGE   50
     CUT-BACK FACTOR AFTER DIVERGENCE                                 0.2500    
     CUT-BACK FACTOR FOR TOO SLOW CONVERGENCE                         0.5000    
     CUT-BACK FACTOR AFTER TOO MANY EQUILIBRIUM ITERATIONS            0.7500    
     CUT-BACK FACTOR AFTER TOO MANY SEVERE DISCONTINUITY ITERATIONS   0.2500    
     CUT-BACK FACTOR AFTER PROBLEMS IN ELEMENT ASSEMBLY               0.2500    
     INCREASE FACTOR AFTER TWO INCREMENTS THAT CONVERGE QUICKLY        1.500    
     MAX. TIME INCREMENT INCREASE FACTOR ALLOWED                       1.500    
     MAX. TIME INCREMENT INCREASE FACTOR ALLOWED (DYNAMICS)            1.250    
     MAX. TIME INCREMENT INCREASE FACTOR ALLOWED (DIFFUSION)           2.000    
     MINIMUM TIME INCREMENT RATIO FOR EXTRAPOLATION TO OCCUR          0.1000    
     MAX. RATIO OF TIME INCREMENT TO STABILITY LIMIT                   1.000    
     FRACTION OF STABILITY LIMIT FOR NEW TIME INCREMENT               0.9500    
     TIME INCREMENT INCREASE FACTOR BEFORE A TIME POINT                1.000    
     GLOBAL STABILIZATION CONTROL IS NOT USED

          PRINT OF INCREMENT NUMBER, TIME, ETC., EVERY    1  INCREMENTS

     THE MAXIMUM NUMBER OF INCREMENTS IN THIS STEP IS                     200

          LARGE DISPLACEMENT THEORY WILL BE USED

     LINEAR EXTRAPOLATION WILL BE USED

     CHARACTERISTIC ELEMENT LENGTH     5.723E-02

     DETAILS REGARDING ACTUAL SOLUTION WAVEFRONT REQUESTED

     DETAILED OUTPUT OF DIAGNOSTICS TO DATABASE REQUESTED

     PRINT OF INCREMENT NUMBER, TIME, ETC., TO THE MESSAGE FILE EVERY     1  INCREMENTS

     EQUATIONS ARE BEING REORDERED TO MINIMIZE WAVEFRONT

     COLLECTING MODEL CONSTRAINT INFORMATION FOR OVERCONSTRAINT CHECKS

     COLLECTING STEP CONSTRAINT INFORMATION FOR OVERCONSTRAINT CHECKS


  INCREMENT     1 STARTS. ATTEMPT NUMBER  1, TIME INCREMENT  1.000E-02

  NUMBER OF EQUATIONS =     1256     NUMBER OF FLOATING PT. OPERATIONS =  8.20E+06

     CHECK POINT   START OF SOLVER    

     CHECK POINT  END OF SOLVER       

       ELAPSED USER TIME (SEC)      =   0.0000    
       ELAPSED SYSTEM TIME (SEC)    =   0.0000    
       ELAPSED TOTAL CPU TIME (SEC) =   0.0000    
       ELAPSED WALLCLOCK TIME (SEC) =          0

               CONVERGENCE CHECKS FOR EQUILIBRIUM ITERATION     1


 AVERAGE FORCE                       27.4       TIME AVG. FORCE        27.4    
 LARGEST RESIDUAL FORCE             -148.       AT NODE        212   DOF  1
   INSTANCE: Instance A                                                                      
 LARGEST INCREMENT OF DISP.         3.690E-03   AT NODE        114   DOF  3
   INSTANCE: Instance A                                                                      
 LARGEST CORRECTION TO DISP.        3.690E-03   AT NODE        114   DOF  3
   INSTANCE: Instance A                                                                      
          FORCE     EQUILIBRIUM NOT ACHIEVED WITHIN TOLERANCE.

 AVERAGE MOMENT                     0.150       TIME AVG. MOMENT      0.150    
 LARGEST RESIDUAL MOMENT            0.434       AT NODE        173   DOF  4
   INSTANCE: Instance A                                                                      
 LARGEST INCREMENT OF ROTATION     -1.428E-02   AT NODE        191   DOF  6
   INSTANCE: Instance A                                                                      
 LARGEST CORRECTION TO ROTATION    -1.428E-02   AT NODE        191   DOF  6
   INSTANCE: Instance A                                                                      
          MOMENT    EQUILIBRIUM NOT ACHIEVED WITHIN TOLERANCE.

 COMPATIBILITY ERRORS:
    TYPE                NUMBER EXCEEDING TOLERANCE  MAXIMUM ERROR        IN ELEMENT
 BEAM AXIAL                          0                2.346E-06                182
   INSTANCE: Instance A                                                                      

  NUMBER OF EQUATIONS =     1256     NUMBER OF FLOATING PT. OPERATIONS =  8.20E+06

     CHECK POINT   START OF SOLVER    

     CHECK POINT  END OF SOLVER       

       ELAPSED USER TIME (SEC)      =   0.0000    
       ELAPSED SYSTEM TIME (SEC)    =   0.0000    
       ELAPSED TOTAL CPU TIME (SEC) =   0.0000    
       ELAPSED WALLCLOCK TIME (SEC) =          0

               CONVERGENCE CHECKS FOR EQUILIBRIUM ITERATION     2


 AVERAGE FORCE                       20.8       TIME AVG. FORCE        20.8    
 LARGEST RESIDUAL FORCE            -0.498       AT NODE        114   DOF  2
   INSTANCE: Instance A                                                                      
 LARGEST INCREMENT OF DISP.         3.336E-03   AT NODE        114   DOF  3
   INSTANCE: Instance A                                                                      
 LARGEST CORRECTION TO DISP.       -3.544E-04   AT NODE        114   DOF  3
   INSTANCE: Instance A                                                                      
          FORCE     EQUILIBRIUM NOT ACHIEVED WITHIN TOLERANCE.

 AVERAGE MOMENT                     0.141       TIME AVG. MOMENT      0.141    
 LARGEST RESIDUAL MOMENT            2.412E-03   AT NODE         37   DOF  5
   INSTANCE: Instance A                                                                      
 LARGEST INCREMENT OF ROTATION     -1.417E-02   AT NODE        191   DOF  6
   INSTANCE: Instance A                                                                      
 LARGEST CORRECTION TO ROTATION    -5.545E-04   AT NODE          6   DOF  4
   INSTANCE: Instance A                                                                      
          MOMENT    EQUILIBRIUM NOT ACHIEVED WITHIN TOLERANCE.

 COMPATIBILITY ERRORS:
    TYPE                NUMBER EXCEEDING TOLERANCE  MAXIMUM ERROR        IN ELEMENT
 BEAM AXIAL                          0                1.906E-08                181
   INSTANCE: Instance A                                                                      

  NUMBER OF EQUATIONS =     1256     NUMBER OF FLOATING PT. OPERATIONS =  8.20E+06

     CHECK POINT   START OF SOLVER    

     CHECK POINT  END OF SOLVER       

       ELAPSED USER TIME (SEC)      =   0.0000    
       ELAPSED SYSTEM TIME (SEC)    =   0.0000    
       ELAPSED TOTAL CPU TIME (SEC) =   0.0000    
       ELAPSED WALLCLOCK TIME (SEC) =          0

               CONVERGENCE CHECKS FOR EQUILIBRIUM ITERATION     3


 AVERAGE FORCE                       20.8       TIME AVG. FORCE        20.8    
 LARGEST RESIDUAL FORCE            -0.176       AT NODE        190   DOF  2
   INSTANCE: Instance A                                                                      
 LARGEST INCREMENT OF DISP.         3.125E-03   AT NODE        114   DOF  3
   INSTANCE: Instance A                                                                      
 LARGEST CORRECTION TO DISP.       -2.109E-04   AT NODE        114   DOF  3
   INSTANCE: Instance A                                                                      
          FORCE     EQUILIBRIUM NOT ACHIEVED WITHIN TOLERANCE.

 AVERAGE MOMENT                     0.140       TIME AVG. MOMENT      0.140    
 LARGEST RESIDUAL MOMENT           -8.738E-04   AT NODE        189   DOF  5
   INSTANCE: Instance A                                                                      
 LARGEST INCREMENT OF ROTATION      1.420E-02   AT NODE          1   DOF  6
   INSTANCE: Instance A                                                                      
 LARGEST CORRECTION TO ROTATION    -3.300E-04   AT NODE        100   DOF  4
   INSTANCE: Instance A                                                                      
          MOMENT    EQUILIBRIUM NOT ACHIEVED WITHIN TOLERANCE.

 COMPATIBILITY ERRORS:
    TYPE                NUMBER EXCEEDING TOLERANCE  MAXIMUM ERROR        IN ELEMENT
 BEAM AXIAL                          0                8.762E-09                181
   INSTANCE: Instance A                                                                      

  NUMBER OF EQUATIONS =     1256     NUMBER OF FLOATING PT. OPERATIONS =  8.20E+06

     CHECK POINT   START OF SOLVER    

     CHECK POINT  END OF SOLVER       

       ELAPSED USER TIME (SEC)      =   0.0000    
       ELAPSED SYSTEM TIME (SEC)    =   0.0000    
       ELAPSED TOTAL CPU TIME (SEC) =   0.0000    
       ELAPSED WALLCLOCK TIME (SEC) =          0

               CONVERGENCE CHECKS FOR EQUILIBRIUM ITERATION     4


 AVERAGE FORCE                       20.8       TIME AVG. FORCE        20.8    
 LARGEST RESIDUAL FORCE            -1.174E-05   AT NODE         97   DOF  2
   INSTANCE: Instance A                                                                      
 LARGEST INCREMENT OF DISP.         3.124E-03   AT NODE        114   DOF  3
   INSTANCE: Instance A                                                                      
 LARGEST CORRECTION TO DISP.       -1.077E-06   AT NODE        114   DOF  3
   INSTANCE: Instance A                                                                      
          THE FORCE     EQUILIBRIUM EQUATIONS HAVE CONVERGED

 AVERAGE MOMENT                     0.140       TIME AVG. MOMENT      0.140    
 LARGEST RESIDUAL MOMENT           -2.609E-07   AT NODE        154   DOF  6
   INSTANCE: Instance A                                                                      
 LARGEST INCREMENT OF ROTATION     -1.420E-02   AT NODE        191   DOF  6
   INSTANCE: Instance A                                                                      
 LARGEST CORRECTION TO ROTATION    -1.670E-06   AT NODE        100   DOF  4
   INSTANCE: Instance A                                                                      
          THE MOMENT    EQUILIBRIUM EQUATIONS HAVE CONVERGED

 COMPATIBILITY ERRORS:
    TYPE                NUMBER EXCEEDING TOLERANCE  MAXIMUM ERROR        IN ELEMENT
 BEAM AXIAL                          0                2.216E-13                181
   INSTANCE: Instance A                                                                      

 ITERATION SUMMARY FOR THE INCREMENT:   4 TOTAL ITERATIONS, OF WHICH
   0 ARE SEVERE DISCONTINUITY ITERATIONS AND  4 ARE EQUILIBRIUM ITERATIONS.

 TIME INCREMENT COMPLETED  1.000E-02,  FRACTION OF STEP COMPLETED  1.000E-02
 STEP TIME COMPLETED       1.000E-02,  TOTAL TIME COMPLETED        1.000E-02


  INCREMENT     2 STARTS. ATTEMPT NUMBER  1, TIME INCREMENT  1.000E-02

  NUMBER OF EQUATIONS =     1256     NUMBER OF FLOATING PT. OPERATIONS =  8.20E+06

     CHECK POINT   START OF SOLVER    

     CHECK POINT  END OF SOLVER       

       ELAPSED USER TIME (SEC)      =   0.0000    
       ELAPSED SYSTEM TIME (SEC)    =   0.0000    
       ELAPSED TOTAL CPU TIME (SEC) =   0.0000    
       ELAPSED WALLCLOCK TIME (SEC) =          0

               CONVERGENCE CHECKS FOR EQUILIBRIUM ITERATION     1


 AVERAGE FORCE                       39.8       TIME AVG. FORCE        30.3    
 LARGEST RESIDUAL FORCE            -0.106       AT NODE        213   DOF  3
   INSTANCE: Instance A                                                                      
 LARGEST INCREMENT OF DISP.         2.985E-03   AT NODE        114   DOF  3
   INSTANCE: Instance A                                                                      
 LARGEST CORRECTION TO DISP.       -1.386E-04   AT NODE        114   DOF  3
   INSTANCE: Instance A                                                                      
 ESTIMATE OF DISP.    CORRECTION    4.562E-08
 FORCE     EQUILIB. ACCEPTED BASED ON SMALL RESIDUAL AND ESTIMATED CORRECTION

 AVERAGE MOMENT                     0.275       TIME AVG. MOMENT      0.208    
 LARGEST RESIDUAL MOMENT           -1.723E-03   AT NODE          1   DOF  6
   INSTANCE: Instance A                                                                      
 LARGEST INCREMENT OF ROTATION      1.402E-02   AT NODE          1   DOF  6
   INSTANCE: Instance A                                                                      
 LARGEST CORRECTION TO ROTATION     2.818E-04   AT NODE        191   DOF  4
   INSTANCE: Instance A                                                                      
          MOMENT    EQUILIBRIUM NOT ACHIEVED WITHIN TOLERANCE.

 COMPATIBILITY ERRORS:
    TYPE                NUMBER EXCEEDING TOLERANCE  MAXIMUM ERROR        IN ELEMENT
 BEAM AXIAL                          0                1.617E-09                181
   INSTANCE: Instance A                                                                      

  NUMBER OF EQUATIONS =     1256     NUMBER OF FLOATING PT. OPERATIONS =  8.20E+06

     CHECK POINT   START OF SOLVER    

     CHECK POINT  END OF SOLVER       

       ELAPSED USER TIME (SEC)      =   0.0000    
       ELAPSED SYSTEM TIME (SEC)    =   0.0000    
       ELAPSED TOTAL CPU TIME (SEC) =   0.0000    
       ELAPSED WALLCLOCK TIME (SEC) =          0

               CONVERGENCE CHECKS FOR EQUILIBRIUM ITERATION     2


 AVERAGE FORCE                       40.0       TIME AVG. FORCE        30.4    
 LARGEST RESIDUAL FORCE            -3.149E-04   AT NODE        172   DOF  2
   INSTANCE: Instance A                                                                      
 LARGEST INCREMENT OF DISP.         2.986E-03   AT NODE        114   DOF  3
   INSTANCE: Instance A                                                                      
 LARGEST CORRECTION TO DISP.        5.072E-07   AT NODE        191   DOF  2
   INSTANCE: Instance A                                                                      
          THE FORCE     EQUILIBRIUM EQUATIONS HAVE CONVERGED

 AVERAGE MOMENT                     0.277       TIME AVG. MOMENT      0.208    
 LARGEST RESIDUAL MOMENT            7.250E-06   AT NODE          2   DOF  6
   INSTANCE: Instance A                                                                      
 LARGEST INCREMENT OF ROTATION      1.401E-02   AT NODE          1   DOF  6
   INSTANCE: Instance A                                                                      
 LARGEST CORRECTION TO ROTATION     7.104E-06   AT NODE        191   DOF  4
   INSTANCE: Instance A                                                                      
          THE MOMENT    EQUILIBRIUM EQUATIONS HAVE CONVERGED

 COMPATIBILITY ERRORS:
    TYPE                NUMBER EXCEEDING TOLERANCE  MAXIMUM ERROR        IN ELEMENT
 BEAM AXIAL                          0                4.964E-13                182
   INSTANCE: Instance A                                                                      
          TIME INCREMENT MAY NOW INCREASE TO    1.500E-02

 ITERATION SUMMARY FOR THE INCREMENT:   2 TOTAL ITERATIONS, OF WHICH
   0 ARE SEVERE DISCONTINUITY ITERATIONS AND  2 ARE EQUILIBRIUM ITERATIONS.

 TIME INCREMENT COMPLETED  1.000E-02,  FRACTION OF STEP COMPLETED  2.000E-02
 STEP TIME COMPLETED       2.000E-02,  TOTAL TIME COMPLETED        2.000E-02


  INCREMENT     3 STARTS. ATTEMPT NUMBER  1, TIME INCREMENT  1.500E-02

  NUMBER OF EQUATIONS =     1256     NUMBER OF FLOATING PT. OPERATIONS =  8.20E+06

     CHECK POINT   START OF SOLVER    

     CHECK POINT  END OF SOLVER       

       ELAPSED USER TIME (SEC)      =   0.0000    
       ELAPSED SYSTEM TIME (SEC)    =   0.0000    
       ELAPSED TOTAL CPU TIME (SEC) =   0.0000    
       ELAPSED WALLCLOCK TIME (SEC) =          0

               CONVERGENCE CHECKS FOR EQUILIBRIUM ITERATION     1


 AVERAGE FORCE                       64.9       TIME AVG. FORCE        41.9    
 LARGEST RESIDUAL FORCE            -0.276       AT NODE        114   DOF  2
   INSTANCE: Instance A                                                                      
 LARGEST INCREMENT OF DISP.         4.231E-03   AT NODE        114   DOF  3
   INSTANCE: Instance A                                                                      
 LARGEST CORRECTION TO DISP.       -2.470E-04   AT NODE        114   DOF  3
   INSTANCE: Instance A                                                                      
          FORCE     EQUILIBRIUM NOT ACHIEVED WITHIN TOLERANCE.

 AVERAGE MOMENT                     0.469       TIME AVG. MOMENT      0.295    
 LARGEST RESIDUAL MOMENT            5.515E-03   AT NODE        191   DOF  6
   INSTANCE: Instance A                                                                      
 LARGEST INCREMENT OF ROTATION     -2.035E-02   AT NODE        191   DOF  6
   INSTANCE: Instance A                                                                      
 LARGEST CORRECTION TO ROTATION    -6.696E-04   AT NODE          1   DOF  6
   INSTANCE: Instance A                                                                      
          MOMENT    EQUILIBRIUM NOT ACHIEVED WITHIN TOLERANCE.

 COMPATIBILITY ERRORS:
    TYPE                NUMBER EXCEEDING TOLERANCE  MAXIMUM ERROR        IN ELEMENT
 BEAM AXIAL                          0                5.538E-09                181
   INSTANCE: Instance A                                                                      

  NUMBER OF EQUATIONS =     1256     NUMBER OF FLOATING PT. OPERATIONS =  8.20E+06

     CHECK POINT   START OF SOLVER    

     CHECK POINT  END OF SOLVER       

       ELAPSED USER TIME (SEC)      =   0.0000    
       ELAPSED SYSTEM TIME (SEC)    =   0.0000    
       ELAPSED TOTAL CPU TIME (SEC) =   0.0000    
       ELAPSED WALLCLOCK TIME (SEC) =          0

               CONVERGENCE CHECKS FOR EQUILIBRIUM ITERATION     2


 AVERAGE FORCE                       65.3       TIME AVG. FORCE        42.1    
 LARGEST RESIDUAL FORCE            -1.106E-03   AT NODE         20   DOF  2
   INSTANCE: Instance A                                                                      
 LARGEST INCREMENT OF DISP.         4.233E-03   AT NODE        114   DOF  3
   INSTANCE: Instance A                                                                      
 LARGEST CORRECTION TO DISP.        1.952E-06   AT NODE        114   DOF  3
   INSTANCE: Instance A                                                                      
          THE FORCE     EQUILIBRIUM EQUATIONS HAVE CONVERGED

 AVERAGE MOMENT                     0.472       TIME AVG. MOMENT      0.296    
 LARGEST RESIDUAL MOMENT           -2.668E-05   AT NODE        192   DOF  6
   INSTANCE: Instance A                                                                      
 LARGEST INCREMENT OF ROTATION     -2.034E-02   AT NODE        191   DOF  6
   INSTANCE: Instance A                                                                      
 LARGEST CORRECTION TO ROTATION     2.037E-05   AT NODE        191   DOF  4
   INSTANCE: Instance A                                                                      
          THE MOMENT    EQUILIBRIUM EQUATIONS HAVE CONVERGED

 COMPATIBILITY ERRORS:
    TYPE                NUMBER EXCEEDING TOLERANCE  MAXIMUM ERROR        IN ELEMENT
 BEAM AXIAL                          0                3.798E-12                182
   INSTANCE: Instance A                                                                      
          TIME INCREMENT MAY NOW INCREASE TO    2.250E-02

 ITERATION SUMMARY FOR THE INCREMENT:   2 TOTAL ITERATIONS, OF WHICH
   0 ARE SEVERE DISCONTINUITY ITERATIONS AND  2 ARE EQUILIBRIUM ITERATIONS.

 TIME INCREMENT COMPLETED  1.500E-02,  FRACTION OF STEP COMPLETED  3.500E-02
 STEP TIME COMPLETED       3.500E-02,  TOTAL TIME COMPLETED        3.500E-02


  INCREMENT     4 STARTS. ATTEMPT NUMBER  1, TIME INCREMENT  2.250E-02

  NUMBER OF EQUATIONS =     1256     NUMBER OF FLOATING PT. OPERATIONS =  8.20E+06

     CHECK POINT   START OF SOLVER    

     CHECK POINT  END OF SOLVER       

       ELAPSED USER TIME (SEC)      =   0.0000    
       ELAPSED SYSTEM TIME (SEC)    =   0.0000    
       ELAPSED TOTAL CPU TIME (SEC) =   0.0000    
       ELAPSED WALLCLOCK TIME (SEC) =          0

               CONVERGENCE CHECKS FOR EQUILIBRIUM ITERATION     1


 AVERAGE FORCE                       97.1       TIME AVG. FORCE        55.8    
 LARGEST RESIDUAL FORCE             -1.02       AT NODE        114   DOF  2
   INSTANCE: Instance A                                                                      
 LARGEST INCREMENT OF DISP.         5.872E-03   AT NODE        114   DOF  3
   INSTANCE: Instance A                                                                      
 LARGEST CORRECTION TO DISP.       -4.775E-04   AT NODE        114   DOF  3
   INSTANCE: Instance A                                                                      
          FORCE     EQUILIBRIUM NOT ACHIEVED WITHIN TOLERANCE.

 AVERAGE MOMENT                     0.742       TIME AVG. MOMENT      0.408    
 LARGEST RESIDUAL MOMENT            2.309E-02   AT NODE        172   DOF  6
   INSTANCE: Instance A                                                                      
 LARGEST INCREMENT OF ROTATION      2.908E-02   AT NODE          1   DOF  6
   INSTANCE: Instance A                                                                      
 LARGEST CORRECTION TO ROTATION     1.426E-03   AT NODE        191   DOF  6
   INSTANCE: Instance A                                                                      
          MOMENT    EQUILIBRIUM NOT ACHIEVED WITHIN TOLERANCE.

 COMPATIBILITY ERRORS:
    TYPE                NUMBER EXCEEDING TOLERANCE  MAXIMUM ERROR        IN ELEMENT
 BEAM AXIAL                          0                2.941E-08                181
   INSTANCE: Instance A                                                                      

  NUMBER OF EQUATIONS =     1256     NUMBER OF FLOATING PT. OPERATIONS =  8.20E+06

     CHECK POINT   START OF SOLVER    

     CHECK POINT  END OF SOLVER       

       ELAPSED USER TIME (SEC)      =   0.0000    
       ELAPSED SYSTEM TIME (SEC)    =   0.0000    
       ELAPSED TOTAL CPU TIME (SEC) =   0.0000    
       ELAPSED WALLCLOCK TIME (SEC) =          0

               CONVERGENCE CHECKS FOR EQUILIBRIUM ITERATION     2


 AVERAGE FORCE                       98.2       TIME AVG. FORCE        56.1    
 LARGEST RESIDUAL FORCE             4.308E-03   AT NODE          2   DOF  2
   INSTANCE: Instance A                                                                      
 LARGEST INCREMENT OF DISP.         5.896E-03   AT NODE        114   DOF  3
   INSTANCE: Instance A                                                                      
 LARGEST CORRECTION TO DISP.        2.331E-05   AT NODE        114   DOF  3
   INSTANCE: Instance A                                                                      
          THE FORCE     EQUILIBRIUM EQUATIONS HAVE CONVERGED

 AVERAGE MOMENT                     0.746       TIME AVG. MOMENT      0.409    
 LARGEST RESIDUAL MOMENT            1.120E-04   AT NODE          2   DOF  6
   INSTANCE: Instance A                                                                      
 LARGEST INCREMENT OF ROTATION     -2.902E-02   AT NODE        191   DOF  6
   INSTANCE: Instance A                                                                      
 LARGEST CORRECTION TO ROTATION     8.413E-05   AT NODE          1   DOF  4
   INSTANCE: Instance A                                                                      
          THE MOMENT    EQUILIBRIUM EQUATIONS HAVE CONVERGED

 COMPATIBILITY ERRORS:
    TYPE                NUMBER EXCEEDING TOLERANCE  MAXIMUM ERROR        IN ELEMENT
 BEAM AXIAL                          0                1.780E-10                181
   INSTANCE: Instance A                                                                      
          TIME INCREMENT MAY NOW INCREASE TO    3.375E-02

 ITERATION SUMMARY FOR THE INCREMENT:   2 TOTAL ITERATIONS, OF WHICH
   0 ARE SEVERE DISCONTINUITY ITERATIONS AND  2 ARE EQUILIBRIUM ITERATIONS.

 TIME INCREMENT COMPLETED  2.250E-02,  FRACTION OF STEP COMPLETED  5.750E-02
 STEP TIME COMPLETED       5.750E-02,  TOTAL TIME COMPLETED        5.750E-02


  INCREMENT     5 STARTS. ATTEMPT NUMBER  1, TIME INCREMENT  3.375E-02

  NUMBER OF EQUATIONS =     1256     NUMBER OF FLOATING PT. OPERATIONS =  8.20E+06

     CHECK POINT   START OF SOLVER    

     CHECK POINT  END OF SOLVER       

       ELAPSED USER TIME (SEC)      =   0.0000    
       ELAPSED SYSTEM TIME (SEC)    =   0.0000    
       ELAPSED TOTAL CPU TIME (SEC) =   0.0000    
       ELAPSED WALLCLOCK TIME (SEC) =          0

               CONVERGENCE CHECKS FOR EQUILIBRIUM ITERATION     1


 AVERAGE FORCE                       137.       TIME AVG. FORCE        72.2    
 LARGEST RESIDUAL FORCE              4.02       AT NODE         20   DOF  3
   INSTANCE: Instance A                                                                      
 LARGEST INCREMENT OF DISP.         7.970E-03   AT NODE        114   DOF  3
   INSTANCE: Instance A                                                                      
 LARGEST CORRECTION TO DISP.       -8.734E-04   AT NODE        114   DOF  3
   INSTANCE: Instance A                                                                      
          FORCE     EQUILIBRIUM NOT ACHIEVED WITHIN TOLERANCE.

 AVERAGE MOMENT                      1.12       TIME AVG. MOMENT      0.551    
 LARGEST RESIDUAL MOMENT            9.319E-02   AT NODE        172   DOF  6
   INSTANCE: Instance A                                                                      
 LARGEST INCREMENT OF ROTATION      4.058E-02   AT NODE          1   DOF  6
   INSTANCE: Instance A                                                                      
 LARGEST CORRECTION TO ROTATION     2.967E-03   AT NODE        191   DOF  6
   INSTANCE: Instance A                                                                      
          MOMENT    EQUILIBRIUM NOT ACHIEVED WITHIN TOLERANCE.

 COMPATIBILITY ERRORS:
    TYPE                NUMBER EXCEEDING TOLERANCE  MAXIMUM ERROR        IN ELEMENT
 BEAM AXIAL                          0                1.384E-07                182
   INSTANCE: Instance A                                                                      

  NUMBER OF EQUATIONS =     1256     NUMBER OF FLOATING PT. OPERATIONS =  8.20E+06

     CHECK POINT   START OF SOLVER    

     CHECK POINT  END OF SOLVER       

       ELAPSED USER TIME (SEC)      =   0.0000    
       ELAPSED SYSTEM TIME (SEC)    =   0.0000    
       ELAPSED TOTAL CPU TIME (SEC) =   0.0000    
       ELAPSED WALLCLOCK TIME (SEC) =          0

               CONVERGENCE CHECKS FOR EQUILIBRIUM ITERATION     2


 AVERAGE FORCE                       137.       TIME AVG. FORCE        72.3    
 LARGEST RESIDUAL FORCE             4.729E-02   AT NODE         20   DOF  3
   INSTANCE: Instance A                                                                      
 LARGEST INCREMENT OF DISP.         8.073E-03   AT NODE        114   DOF  3
   INSTANCE: Instance A                                                                      
 LARGEST CORRECTION TO DISP.        1.028E-04   AT NODE        114   DOF  3
   INSTANCE: Instance A                                                                      
 ESTIMATE OF DISP.    CORRECTION    1.210E-06
 FORCE     EQUILIB. ACCEPTED BASED ON SMALL RESIDUAL AND ESTIMATED CORRECTION

 AVERAGE MOMENT                      1.12       TIME AVG. MOMENT      0.552    
 LARGEST RESIDUAL MOMENT           -4.644E-04   AT NODE        173   DOF  6
   INSTANCE: Instance A                                                                      
 LARGEST INCREMENT OF ROTATION      4.041E-02   AT NODE          1   DOF  6
   INSTANCE: Instance A                                                                      
 LARGEST CORRECTION TO ROTATION     2.812E-04   AT NODE          1   DOF  4
   INSTANCE: Instance A                                                                      
          THE MOMENT    EQUILIBRIUM EQUATIONS HAVE CONVERGED

 COMPATIBILITY ERRORS:
    TYPE                NUMBER EXCEEDING TOLERANCE  MAXIMUM ERROR        IN ELEMENT
 BEAM AXIAL                          0                2.822E-09                181
   INSTANCE: Instance A                                                                      
          TIME INCREMENT MAY NOW INCREASE TO    5.000E-02

 ITERATION SUMMARY FOR THE INCREMENT:   2 TOTAL ITERATIONS, OF WHICH
   0 ARE SEVERE DISCONTINUITY ITERATIONS AND  2 ARE EQUILIBRIUM ITERATIONS.

 TIME INCREMENT COMPLETED  3.375E-02,  FRACTION OF STEP COMPLETED  9.125E-02
 STEP TIME COMPLETED       9.125E-02,  TOTAL TIME COMPLETED        9.125E-02


  INCREMENT     6 STARTS. ATTEMPT NUMBER  1, TIME INCREMENT  5.000E-02

  NUMBER OF EQUATIONS =     1256     NUMBER OF FLOATING PT. OPERATIONS =  8.20E+06

     CHECK POINT   START OF SOLVER    

     CHECK POINT  END OF SOLVER       

       ELAPSED USER TIME (SEC)      =   0.0000    
       ELAPSED SYSTEM TIME (SEC)    =   0.0000    
       ELAPSED TOTAL CPU TIME (SEC) =   0.0000    
       ELAPSED WALLCLOCK TIME (SEC) =          0

               CONVERGENCE CHECKS FOR EQUILIBRIUM ITERATION     1


 AVERAGE FORCE                       182.       TIME AVG. FORCE        90.6    
 LARGEST RESIDUAL FORCE             -16.8       AT NODE        212   DOF  1
   INSTANCE: Instance A                                                                      
 LARGEST INCREMENT OF DISP.         1.049E-02   AT NODE        114   DOF  3
   INSTANCE: Instance A                                                                      
 LARGEST CORRECTION TO DISP.       -1.469E-03   AT NODE        114   DOF  3
   INSTANCE: Instance A                                                                      
          FORCE     EQUILIBRIUM NOT ACHIEVED WITHIN TOLERANCE.

 AVERAGE MOMENT                      1.63       TIME AVG. MOMENT      0.731    
 LARGEST RESIDUAL MOMENT            0.333       AT NODE        172   DOF  6
   INSTANCE: Instance A                                                                      
 LARGEST INCREMENT OF ROTATION      5.435E-02   AT NODE          1   DOF  6
   INSTANCE: Instance A                                                                      
 LARGEST CORRECTION TO ROTATION     5.530E-03   AT NODE        191   DOF  6
   INSTANCE: Instance A                                                                      
          MOMENT    EQUILIBRIUM NOT ACHIEVED WITHIN TOLERANCE.

 COMPATIBILITY ERRORS:
    TYPE                NUMBER EXCEEDING TOLERANCE  MAXIMUM ERROR        IN ELEMENT
 BEAM AXIAL                          0                5.187E-07                181
   INSTANCE: Instance A                                                                      

  NUMBER OF EQUATIONS =     1256     NUMBER OF FLOATING PT. OPERATIONS =  8.20E+06

     CHECK POINT   START OF SOLVER    

     CHECK POINT  END OF SOLVER       

       ELAPSED USER TIME (SEC)      =   0.0000    
       ELAPSED SYSTEM TIME (SEC)    =   0.0000    
       ELAPSED TOTAL CPU TIME (SEC) =   0.0000    
       ELAPSED WALLCLOCK TIME (SEC) =          0

               CONVERGENCE CHECKS FOR EQUILIBRIUM ITERATION     2


 AVERAGE FORCE                       183.       TIME AVG. FORCE        90.7    
 LARGEST RESIDUAL FORCE             0.410       AT NODE         20   DOF  3
   INSTANCE: Instance A                                                                      
 LARGEST INCREMENT OF DISP.         1.081E-02   AT NODE        114   DOF  3
   INSTANCE: Instance A                                                                      
 LARGEST CORRECTION TO DISP.        3.196E-04   AT NODE        114   DOF  3
   INSTANCE: Instance A                                                                      
 ESTIMATE OF DISP.    CORRECTION   -7.805E-06
 FORCE     EQUILIB. ACCEPTED BASED ON SMALL RESIDUAL AND ESTIMATED CORRECTION

 AVERAGE MOMENT                      1.63       TIME AVG. MOMENT      0.732    
 LARGEST RESIDUAL MOMENT           -2.327E-03   AT NODE        173   DOF  6
   INSTANCE: Instance A                                                                      
 LARGEST INCREMENT OF ROTATION      5.390E-02   AT NODE          1   DOF  6
   INSTANCE: Instance A                                                                      
 LARGEST CORRECTION TO ROTATION     7.734E-04   AT NODE          1   DOF  4
   INSTANCE: Instance A                                                                      
 ESTIMATE OF ROTATION CORRECTION   -5.408E-06
 MOMENT    EQUILIB. ACCEPTED BASED ON SMALL RESIDUAL AND ESTIMATED CORRECTION

 COMPATIBILITY ERRORS:
    TYPE                NUMBER EXCEEDING TOLERANCE  MAXIMUM ERROR        IN ELEMENT
 BEAM AXIAL                          0                2.500E-08                181
   INSTANCE: Instance A                                                                      

 ITERATION SUMMARY FOR THE INCREMENT:   2 TOTAL ITERATIONS, OF WHICH
   0 ARE SEVERE DISCONTINUITY ITERATIONS AND  2 ARE EQUILIBRIUM ITERATIONS.

 TIME INCREMENT COMPLETED  5.000E-02,  FRACTION OF STEP COMPLETED  0.141    
 STEP TIME COMPLETED       0.141    ,  TOTAL TIME COMPLETED        0.141    


  INCREMENT     7 STARTS. ATTEMPT NUMBER  1, TIME INCREMENT  5.000E-02

  NUMBER OF EQUATIONS =     1256     NUMBER OF FLOATING PT. OPERATIONS =  8.20E+06

     CHECK POINT   START OF SOLVER    

     CHECK POINT  END OF SOLVER       

       ELAPSED USER TIME (SEC)      =   0.0000    
       ELAPSED SYSTEM TIME (SEC)    =   0.0000    
       ELAPSED TOTAL CPU TIME (SEC) =   0.0000    
       ELAPSED WALLCLOCK TIME (SEC) =          0

               CONVERGENCE CHECKS FOR EQUILIBRIUM ITERATION     1


 AVERAGE FORCE                       219.       TIME AVG. FORCE        109.    
 LARGEST RESIDUAL FORCE              18.2       AT NODE        210   DOF  1
   INSTANCE: Instance A                                                                      
 LARGEST INCREMENT OF DISP.         9.636E-03   AT NODE        114   DOF  3
   INSTANCE: Instance A                                                                      
 LARGEST CORRECTION TO DISP.       -1.174E-03   AT NODE        114   DOF  3
   INSTANCE: Instance A                                                                      
          FORCE     EQUILIBRIUM NOT ACHIEVED WITHIN TOLERANCE.

 AVERAGE MOMENT                      2.09       TIME AVG. MOMENT      0.926    
 LARGEST RESIDUAL MOMENT            0.346       AT NODE        172   DOF  6
   INSTANCE: Instance A                                                                      
 LARGEST INCREMENT OF ROTATION     -4.867E-02   AT NODE        191   DOF  6
   INSTANCE: Instance A                                                                      
 LARGEST CORRECTION TO ROTATION    -5.243E-03   AT NODE          1   DOF  6
   INSTANCE: Instance A                                                                      
          MOMENT    EQUILIBRIUM NOT ACHIEVED WITHIN TOLERANCE.

 COMPATIBILITY ERRORS:
    TYPE                NUMBER EXCEEDING TOLERANCE  MAXIMUM ERROR        IN ELEMENT
 BEAM AXIAL                          0                5.683E-07                181
   INSTANCE: Instance A                                                                      

  NUMBER OF EQUATIONS =     1256     NUMBER OF FLOATING PT. OPERATIONS =  8.20E+06

     CHECK POINT   START OF SOLVER    

     CHECK POINT  END OF SOLVER       

       ELAPSED USER TIME (SEC)      =   0.0000    
       ELAPSED SYSTEM TIME (SEC)    =   0.0000    
       ELAPSED TOTAL CPU TIME (SEC) =   0.0000    
       ELAPSED WALLCLOCK TIME (SEC) =          0

               CONVERGENCE CHECKS FOR EQUILIBRIUM ITERATION     2


 AVERAGE FORCE                       220.       TIME AVG. FORCE        109.    
 LARGEST RESIDUAL FORCE            -0.565       AT NODE        114   DOF  2
   INSTANCE: Instance A                                                                      
 LARGEST INCREMENT OF DISP.         1.002E-02   AT NODE        114   DOF  3
   INSTANCE: Instance A                                                                      
 LARGEST CORRECTION TO DISP.        3.792E-04   AT NODE        114   DOF  3
   INSTANCE: Instance A                                                                      
          FORCE     EQUILIBRIUM NOT ACHIEVED WITHIN TOLERANCE.

 AVERAGE MOMENT                      2.10       TIME AVG. MOMENT      0.927    
 LARGEST RESIDUAL MOMENT           -2.701E-03   AT NODE        188   DOF  5
   INSTANCE: Instance A                                                                      
 LARGEST INCREMENT OF ROTATION      4.815E-02   AT NODE          1   DOF  6
   INSTANCE: Instance A                                                                      
 LARGEST CORRECTION TO ROTATION     8.493E-04   AT NODE        191   DOF  4
   INSTANCE: Instance A                                                                      
 ESTIMATE OF ROTATION CORRECTION   -6.638E-06
 MOMENT    EQUILIB. ACCEPTED BASED ON SMALL RESIDUAL AND ESTIMATED CORRECTION

 COMPATIBILITY ERRORS:
    TYPE                NUMBER EXCEEDING TOLERANCE  MAXIMUM ERROR        IN ELEMENT
 BEAM AXIAL                          0                3.128E-08                182
   INSTANCE: Instance A                                                                      

  NUMBER OF EQUATIONS =     1256     NUMBER OF FLOATING PT. OPERATIONS =  8.20E+06

     CHECK POINT   START OF SOLVER    

     CHECK POINT  END OF SOLVER       

       ELAPSED USER TIME (SEC)      =   0.0000    
       ELAPSED SYSTEM TIME (SEC)    =   0.0000    
       ELAPSED TOTAL CPU TIME (SEC) =   0.0000    
       ELAPSED WALLCLOCK TIME (SEC) =          0

               CONVERGENCE CHECKS FOR EQUILIBRIUM ITERATION     3


 AVERAGE FORCE                       221.       TIME AVG. FORCE        109.    
 LARGEST RESIDUAL FORCE            -2.617E-03   AT NODE         38   DOF  2
   INSTANCE: Instance A                                                                      
 LARGEST INCREMENT OF DISP.         1.004E-02   AT NODE        114   DOF  3
   INSTANCE: Instance A                                                                      
 LARGEST CORRECTION TO DISP.        2.571E-05   AT NODE        114   DOF  3
   INSTANCE: Instance A                                                                      
          THE FORCE     EQUILIBRIUM EQUATIONS HAVE CONVERGED

 AVERAGE MOMENT                      2.10       TIME AVG. MOMENT      0.928    
 LARGEST RESIDUAL MOMENT            3.348E-05   AT NODE         20   DOF  4
   INSTANCE: Instance A                                                                      
 LARGEST INCREMENT OF ROTATION     -4.815E-02   AT NODE        191   DOF  6
   INSTANCE: Instance A                                                                      
 LARGEST CORRECTION TO ROTATION     3.982E-05   AT NODE        104   DOF  4
   INSTANCE: Instance A                                                                      
          THE MOMENT    EQUILIBRIUM EQUATIONS HAVE CONVERGED

 COMPATIBILITY ERRORS:
    TYPE                NUMBER EXCEEDING TOLERANCE  MAXIMUM ERROR        IN ELEMENT
 BEAM AXIAL                          0                1.394E-10                182
   INSTANCE: Instance A                                                                      

 ITERATION SUMMARY FOR THE INCREMENT:   3 TOTAL ITERATIONS, OF WHICH
   0 ARE SEVERE DISCONTINUITY ITERATIONS AND  3 ARE EQUILIBRIUM ITERATIONS.

 TIME INCREMENT COMPLETED  5.000E-02,  FRACTION OF STEP COMPLETED  0.191    
 STEP TIME COMPLETED       0.191    ,  TOTAL TIME COMPLETED        0.191    


  INCREMENT     8 STARTS. ATTEMPT NUMBER  1, TIME INCREMENT  5.000E-02

  NUMBER OF EQUATIONS =     1256     NUMBER OF FLOATING PT. OPERATIONS =  8.20E+06

     CHECK POINT   START OF SOLVER    

     CHECK POINT  END OF SOLVER       

       ELAPSED USER TIME (SEC)      =   0.0000    
       ELAPSED SYSTEM TIME (SEC)    =   0.0000    
       ELAPSED TOTAL CPU TIME (SEC) =   0.0000    
       ELAPSED WALLCLOCK TIME (SEC) =          0

               CONVERGENCE CHECKS FOR EQUILIBRIUM ITERATION     1


 AVERAGE FORCE                       250.       TIME AVG. FORCE        127.    
 LARGEST RESIDUAL FORCE              12.1       AT NODE        210   DOF  1
   INSTANCE: Instance A                                                                      
 LARGEST INCREMENT OF DISP.         9.205E-03   AT NODE        114   DOF  3
   INSTANCE: Instance A                                                                      
 LARGEST CORRECTION TO DISP.       -8.366E-04   AT NODE        114   DOF  3
   INSTANCE: Instance A                                                                      
          FORCE     EQUILIBRIUM NOT ACHIEVED WITHIN TOLERANCE.

 AVERAGE MOMENT                      2.52       TIME AVG. MOMENT       1.13    
 LARGEST RESIDUAL MOMENT            0.247       AT NODE        172   DOF  6
   INSTANCE: Instance A                                                                      
 LARGEST INCREMENT OF ROTATION      4.398E-02   AT NODE          1   DOF  6
   INSTANCE: Instance A                                                                      
 LARGEST CORRECTION TO ROTATION     4.171E-03   AT NODE        191   DOF  6
   INSTANCE: Instance A                                                                      
          MOMENT    EQUILIBRIUM NOT ACHIEVED WITHIN TOLERANCE.

 COMPATIBILITY ERRORS:
    TYPE                NUMBER EXCEEDING TOLERANCE  MAXIMUM ERROR        IN ELEMENT
 BEAM AXIAL                          0                3.878E-07                182
   INSTANCE: Instance A                                                                      

  NUMBER OF EQUATIONS =     1256     NUMBER OF FLOATING PT. OPERATIONS =  8.20E+06

     CHECK POINT   START OF SOLVER    

     CHECK POINT  END OF SOLVER       

       ELAPSED USER TIME (SEC)      =  0.10000    
       ELAPSED SYSTEM TIME (SEC)    =   0.0000    
       ELAPSED TOTAL CPU TIME (SEC) =  0.10000    
       ELAPSED WALLCLOCK TIME (SEC) =          0

               CONVERGENCE CHECKS FOR EQUILIBRIUM ITERATION     2


 AVERAGE FORCE                       251.       TIME AVG. FORCE        127.    
 LARGEST RESIDUAL FORCE            -0.309       AT NODE        114   DOF  2
   INSTANCE: Instance A                                                                      
 LARGEST INCREMENT OF DISP.         9.484E-03   AT NODE        114   DOF  3
   INSTANCE: Instance A                                                                      
 LARGEST CORRECTION TO DISP.        2.792E-04   AT NODE        114   DOF  3
   INSTANCE: Instance A                                                                      
 ESTIMATE OF DISP.    CORRECTION   -7.139E-06
 FORCE     EQUILIB. ACCEPTED BASED ON SMALL RESIDUAL AND ESTIMATED CORRECTION

 AVERAGE MOMENT                      2.52       TIME AVG. MOMENT       1.13    
 LARGEST RESIDUAL MOMENT            1.775E-03   AT NODE          2   DOF  5
   INSTANCE: Instance A                                                                      
 LARGEST INCREMENT OF ROTATION     -4.353E-02   AT NODE        191   DOF  6
   INSTANCE: Instance A                                                                      
 LARGEST CORRECTION TO ROTATION     6.558E-04   AT NODE          1   DOF  4
   INSTANCE: Instance A                                                                      
 ESTIMATE OF ROTATION CORRECTION    4.716E-06
 MOMENT    EQUILIB. ACCEPTED BASED ON SMALL RESIDUAL AND ESTIMATED CORRECTION

 COMPATIBILITY ERRORS:
    TYPE                NUMBER EXCEEDING TOLERANCE  MAXIMUM ERROR        IN ELEMENT
 BEAM AXIAL                          0                1.518E-08                182
   INSTANCE: Instance A                                                                      

 ITERATION SUMMARY FOR THE INCREMENT:   2 TOTAL ITERATIONS, OF WHICH
   0 ARE SEVERE DISCONTINUITY ITERATIONS AND  2 ARE EQUILIBRIUM ITERATIONS.

 TIME INCREMENT COMPLETED  5.000E-02,  FRACTION OF STEP COMPLETED  0.241    
 STEP TIME COMPLETED       0.241    ,  TOTAL TIME COMPLETED        0.241    


  INCREMENT     9 STARTS. ATTEMPT NUMBER  1, TIME INCREMENT  5.000E-02

  NUMBER OF EQUATIONS =     1256     NUMBER OF FLOATING PT. OPERATIONS =  8.20E+06

     CHECK POINT   START OF SOLVER    

     CHECK POINT  END OF SOLVER       

       ELAPSED USER TIME (SEC)      =   0.0000    
       ELAPSED SYSTEM TIME (SEC)    =   0.0000    
       ELAPSED TOTAL CPU TIME (SEC) =   0.0000    
       ELAPSED WALLCLOCK TIME (SEC) =          0

               CONVERGENCE CHECKS FOR EQUILIBRIUM ITERATION     1


 AVERAGE FORCE                       277.       TIME AVG. FORCE        144.    
 LARGEST RESIDUAL FORCE              8.90       AT NODE         20   DOF  3
   INSTANCE: Instance A                                                                      
 LARGEST INCREMENT OF DISP.         8.918E-03   AT NODE        114   DOF  3
   INSTANCE: Instance A                                                                      
 LARGEST CORRECTION TO DISP.        5.729E-04   AT NODE        191   DOF  2
   INSTANCE: Instance A                                                                      
          FORCE     EQUILIBRIUM NOT ACHIEVED WITHIN TOLERANCE.

 AVERAGE MOMENT                      2.92       TIME AVG. MOMENT       1.33    
 LARGEST RESIDUAL MOMENT            0.185       AT NODE        172   DOF  6
   INSTANCE: Instance A                                                                      
 LARGEST INCREMENT OF ROTATION      4.017E-02   AT NODE          1   DOF  6
   INSTANCE: Instance A                                                                      
 LARGEST CORRECTION TO ROTATION     3.398E-03   AT NODE        191   DOF  4
   INSTANCE: Instance A                                                                      
          MOMENT    EQUILIBRIUM NOT ACHIEVED WITHIN TOLERANCE.

 COMPATIBILITY ERRORS:
    TYPE                NUMBER EXCEEDING TOLERANCE  MAXIMUM ERROR        IN ELEMENT
 BEAM AXIAL                          0                2.992E-07                181
   INSTANCE: Instance A                                                                      

  NUMBER OF EQUATIONS =     1256     NUMBER OF FLOATING PT. OPERATIONS =  8.20E+06

     CHECK POINT   START OF SOLVER    

     CHECK POINT  END OF SOLVER       

       ELAPSED USER TIME (SEC)      =  0.10000    
       ELAPSED SYSTEM TIME (SEC)    =   0.0000    
       ELAPSED TOTAL CPU TIME (SEC) =  0.10000    
       ELAPSED WALLCLOCK TIME (SEC) =          0

               CONVERGENCE CHECKS FOR EQUILIBRIUM ITERATION     2


 AVERAGE FORCE                       278.       TIME AVG. FORCE        144.    
 LARGEST RESIDUAL FORCE            -0.204       AT NODE        114   DOF  2
   INSTANCE: Instance A                                                                      
 LARGEST INCREMENT OF DISP.         9.144E-03   AT NODE        114   DOF  3
   INSTANCE: Instance A                                                                      
 LARGEST CORRECTION TO DISP.        2.261E-04   AT NODE        114   DOF  3
   INSTANCE: Instance A                                                                      
 ESTIMATE OF DISP.    CORRECTION   -5.186E-06
 FORCE     EQUILIB. ACCEPTED BASED ON SMALL RESIDUAL AND ESTIMATED CORRECTION

 AVERAGE MOMENT                      2.93       TIME AVG. MOMENT       1.33    
 LARGEST RESIDUAL MOMENT           -1.552E-03   AT NODE        192   DOF  5
   INSTANCE: Instance A                                                                      
 LARGEST INCREMENT OF ROTATION      3.976E-02   AT NODE          1   DOF  6
   INSTANCE: Instance A                                                                      
 LARGEST CORRECTION TO ROTATION     5.448E-04   AT NODE        191   DOF  4
   INSTANCE: Instance A                                                                      
 ESTIMATE OF ROTATION CORRECTION   -4.566E-06
 MOMENT    EQUILIB. ACCEPTED BASED ON SMALL RESIDUAL AND ESTIMATED CORRECTION

 COMPATIBILITY ERRORS:
    TYPE                NUMBER EXCEEDING TOLERANCE  MAXIMUM ERROR        IN ELEMENT
 BEAM AXIAL                          0                9.157E-09                182
   INSTANCE: Instance A                                                                      

 ITERATION SUMMARY FOR THE INCREMENT:   2 TOTAL ITERATIONS, OF WHICH
   0 ARE SEVERE DISCONTINUITY ITERATIONS AND  2 ARE EQUILIBRIUM ITERATIONS.

 TIME INCREMENT COMPLETED  5.000E-02,  FRACTION OF STEP COMPLETED  0.291    
 STEP TIME COMPLETED       0.291    ,  TOTAL TIME COMPLETED        0.291    


  INCREMENT    10 STARTS. ATTEMPT NUMBER  1, TIME INCREMENT  5.000E-02

  NUMBER OF EQUATIONS =     1256     NUMBER OF FLOATING PT. OPERATIONS =  8.20E+06

     CHECK POINT   START OF SOLVER    

     CHECK POINT  END OF SOLVER       

       ELAPSED USER TIME (SEC)      =   0.0000    
       ELAPSED SYSTEM TIME (SEC)    =   0.0000    
       ELAPSED TOTAL CPU TIME (SEC) =   0.0000    
       ELAPSED WALLCLOCK TIME (SEC) =          0

               CONVERGENCE CHECKS FOR EQUILIBRIUM ITERATION     1


 AVERAGE FORCE                       302.       TIME AVG. FORCE        160.    
 LARGEST RESIDUAL FORCE              6.49       AT NODE         20   DOF  3
   INSTANCE: Instance A                                                                      
 LARGEST INCREMENT OF DISP.         8.709E-03   AT NODE        114   DOF  3
   INSTANCE: Instance A                                                                      
 LARGEST CORRECTION TO DISP.        4.748E-04   AT NODE          1   DOF  2
   INSTANCE: Instance A                                                                      
          FORCE     EQUILIBRIUM NOT ACHIEVED WITHIN TOLERANCE.

 AVERAGE MOMENT                      3.29       TIME AVG. MOMENT       1.52    
 LARGEST RESIDUAL MOMENT           -0.143       AT NODE          1   DOF  6
   INSTANCE: Instance A                                                                      
 LARGEST INCREMENT OF ROTATION     -3.702E-02   AT NODE        191   DOF  6
   INSTANCE: Instance A                                                                      
 LARGEST CORRECTION TO ROTATION     2.868E-03   AT NODE          1   DOF  4
   INSTANCE: Instance A                                                                      
          MOMENT    EQUILIBRIUM NOT ACHIEVED WITHIN TOLERANCE.

 COMPATIBILITY ERRORS:
    TYPE                NUMBER EXCEEDING TOLERANCE  MAXIMUM ERROR        IN ELEMENT
 BEAM AXIAL                          0                2.212E-07                182
   INSTANCE: Instance A                                                                      

  NUMBER OF EQUATIONS =     1256     NUMBER OF FLOATING PT. OPERATIONS =  8.20E+06

     CHECK POINT   START OF SOLVER    

     CHECK POINT  END OF SOLVER       

       ELAPSED USER TIME (SEC)      =   0.0000    
       ELAPSED SYSTEM TIME (SEC)    =   0.0000    
       ELAPSED TOTAL CPU TIME (SEC) =   0.0000    
       ELAPSED WALLCLOCK TIME (SEC) =          0

               CONVERGENCE CHECKS FOR EQUILIBRIUM ITERATION     2


 AVERAGE FORCE                       303.       TIME AVG. FORCE        160.    
 LARGEST RESIDUAL FORCE            -0.121       AT NODE        114   DOF  2
   INSTANCE: Instance A                                                                      
 LARGEST INCREMENT OF DISP.         8.882E-03   AT NODE        114   DOF  3
   INSTANCE: Instance A                                                                      
 LARGEST CORRECTION TO DISP.        1.731E-04   AT NODE        114   DOF  3
   INSTANCE: Instance A                                                                      
 ESTIMATE OF DISP.    CORRECTION   -3.221E-06
 FORCE     EQUILIB. ACCEPTED BASED ON SMALL RESIDUAL AND ESTIMATED CORRECTION

 AVERAGE MOMENT                      3.31       TIME AVG. MOMENT       1.53    
 LARGEST RESIDUAL MOMENT           -1.352E-03   AT NODE        192   DOF  5
   INSTANCE: Instance A                                                                      
 LARGEST INCREMENT OF ROTATION      3.665E-02   AT NODE          1   DOF  6
   INSTANCE: Instance A                                                                      
 LARGEST CORRECTION TO ROTATION     4.432E-04   AT NODE          1   DOF  4
   INSTANCE: Instance A                                                                      
 ESTIMATE OF ROTATION CORRECTION    4.187E-06
 MOMENT    EQUILIB. ACCEPTED BASED ON SMALL RESIDUAL AND ESTIMATED CORRECTION

 COMPATIBILITY ERRORS:
    TYPE                NUMBER EXCEEDING TOLERANCE  MAXIMUM ERROR        IN ELEMENT
 BEAM AXIAL                          0                4.897E-09                182
   INSTANCE: Instance A                                                                      

 ITERATION SUMMARY FOR THE INCREMENT:   2 TOTAL ITERATIONS, OF WHICH
   0 ARE SEVERE DISCONTINUITY ITERATIONS AND  2 ARE EQUILIBRIUM ITERATIONS.

 TIME INCREMENT COMPLETED  5.000E-02,  FRACTION OF STEP COMPLETED  0.341    
 STEP TIME COMPLETED       0.341    ,  TOTAL TIME COMPLETED        0.341    


  INCREMENT    11 STARTS. ATTEMPT NUMBER  1, TIME INCREMENT  5.000E-02

  NUMBER OF EQUATIONS =     1256     NUMBER OF FLOATING PT. OPERATIONS =  8.20E+06

     CHECK POINT   START OF SOLVER    

     CHECK POINT  END OF SOLVER       

       ELAPSED USER TIME (SEC)      =   0.0000    
       ELAPSED SYSTEM TIME (SEC)    =   0.0000    
       ELAPSED TOTAL CPU TIME (SEC) =   0.0000    
       ELAPSED WALLCLOCK TIME (SEC) =          0

               CONVERGENCE CHECKS FOR EQUILIBRIUM ITERATION     1


 AVERAGE FORCE                       324.       TIME AVG. FORCE        175.    
 LARGEST RESIDUAL FORCE              4.91       AT NODE         20   DOF  3
   INSTANCE: Instance A                                                                      
 LARGEST INCREMENT OF DISP.         8.538E-03   AT NODE        114   DOF  3
   INSTANCE: Instance A                                                                      
 LARGEST CORRECTION TO DISP.        4.006E-04   AT NODE          1   DOF  2
   INSTANCE: Instance A                                                                      
          FORCE     EQUILIBRIUM NOT ACHIEVED WITHIN TOLERANCE.

 AVERAGE MOMENT                      3.66       TIME AVG. MOMENT       1.72    
 LARGEST RESIDUAL MOMENT            0.118       AT NODE        191   DOF  6
   INSTANCE: Instance A                                                                      
 LARGEST INCREMENT OF ROTATION     -3.436E-02   AT NODE        191   DOF  6
   INSTANCE: Instance A                                                                      
 LARGEST CORRECTION TO ROTATION     2.473E-03   AT NODE        191   DOF  4
   INSTANCE: Instance A                                                                      
          MOMENT    EQUILIBRIUM NOT ACHIEVED WITHIN TOLERANCE.

 COMPATIBILITY ERRORS:
    TYPE                NUMBER EXCEEDING TOLERANCE  MAXIMUM ERROR        IN ELEMENT
 BEAM AXIAL                          0                1.702E-07                181
   INSTANCE: Instance A                                                                      

  NUMBER OF EQUATIONS =     1256     NUMBER OF FLOATING PT. OPERATIONS =  8.20E+06

     CHECK POINT   START OF SOLVER    

     CHECK POINT  END OF SOLVER       

       ELAPSED USER TIME (SEC)      =  0.10000    
       ELAPSED SYSTEM TIME (SEC)    =   0.0000    
       ELAPSED TOTAL CPU TIME (SEC) =  0.10000    
       ELAPSED WALLCLOCK TIME (SEC) =          0

               CONVERGENCE CHECKS FOR EQUILIBRIUM ITERATION     2


 AVERAGE FORCE                       326.       TIME AVG. FORCE        175.    
 LARGEST RESIDUAL FORCE            -7.675E-02   AT NODE        114   DOF  2
   INSTANCE: Instance A                                                                      
 LARGEST INCREMENT OF DISP.         8.675E-03   AT NODE        114   DOF  3
   INSTANCE: Instance A                                                                      
 LARGEST CORRECTION TO DISP.        1.374E-04   AT NODE        114   DOF  3
   INSTANCE: Instance A                                                                      
 ESTIMATE OF DISP.    CORRECTION   -2.146E-06
 FORCE     EQUILIB. ACCEPTED BASED ON SMALL RESIDUAL AND ESTIMATED CORRECTION

 AVERAGE MOMENT                      3.68       TIME AVG. MOMENT       1.72    
 LARGEST RESIDUAL MOMENT            1.216E-03   AT NODE          2   DOF  5
   INSTANCE: Instance A                                                                      
 LARGEST INCREMENT OF ROTATION      3.402E-02   AT NODE          1   DOF  6
   INSTANCE: Instance A                                                                      
 LARGEST CORRECTION TO ROTATION     3.712E-04   AT NODE          1   DOF  4
   INSTANCE: Instance A                                                                      
 ESTIMATE OF ROTATION CORRECTION    3.818E-06
 MOMENT    EQUILIB. ACCEPTED BASED ON SMALL RESIDUAL AND ESTIMATED CORRECTION

 COMPATIBILITY ERRORS:
    TYPE                NUMBER EXCEEDING TOLERANCE  MAXIMUM ERROR        IN ELEMENT
 BEAM AXIAL                          0                2.838E-09                182
   INSTANCE: Instance A                                                                      

 ITERATION SUMMARY FOR THE INCREMENT:   2 TOTAL ITERATIONS, OF WHICH
   0 ARE SEVERE DISCONTINUITY ITERATIONS AND  2 ARE EQUILIBRIUM ITERATIONS.

 TIME INCREMENT COMPLETED  5.000E-02,  FRACTION OF STEP COMPLETED  0.391    
 STEP TIME COMPLETED       0.391    ,  TOTAL TIME COMPLETED        0.391    


  INCREMENT    12 STARTS. ATTEMPT NUMBER  1, TIME INCREMENT  5.000E-02

  NUMBER OF EQUATIONS =     1256     NUMBER OF FLOATING PT. OPERATIONS =  8.20E+06

     CHECK POINT   START OF SOLVER    

     CHECK POINT  END OF SOLVER       

       ELAPSED USER TIME (SEC)      =   0.0000    
       ELAPSED SYSTEM TIME (SEC)    =   0.0000    
       ELAPSED TOTAL CPU TIME (SEC) =   0.0000    
       ELAPSED WALLCLOCK TIME (SEC) =          0

               CONVERGENCE CHECKS FOR EQUILIBRIUM ITERATION     1


 AVERAGE FORCE                       345.       TIME AVG. FORCE        189.    
 LARGEST RESIDUAL FORCE              3.79       AT NODE         20   DOF  3
   INSTANCE: Instance A                                                                      
 LARGEST INCREMENT OF DISP.         8.389E-03   AT NODE        114   DOF  3
   INSTANCE: Instance A                                                                      
 LARGEST CORRECTION TO DISP.        3.422E-04   AT NODE        210   DOF  2
   INSTANCE: Instance A                                                                      
          FORCE     EQUILIBRIUM NOT ACHIEVED WITHIN TOLERANCE.

 AVERAGE MOMENT                      4.01       TIME AVG. MOMENT       1.91    
 LARGEST RESIDUAL MOMENT           -9.980E-02   AT NODE          1   DOF  6
   INSTANCE: Instance A                                                                      
 LARGEST INCREMENT OF ROTATION     -3.208E-02   AT NODE        191   DOF  6
   INSTANCE: Instance A                                                                      
 LARGEST CORRECTION TO ROTATION     2.159E-03   AT NODE        191   DOF  4
   INSTANCE: Instance A                                                                      
          MOMENT    EQUILIBRIUM NOT ACHIEVED WITHIN TOLERANCE.

 COMPATIBILITY ERRORS:
    TYPE                NUMBER EXCEEDING TOLERANCE  MAXIMUM ERROR        IN ELEMENT
 BEAM AXIAL                          0                1.331E-07                182
   INSTANCE: Instance A                                                                      

  NUMBER OF EQUATIONS =     1256     NUMBER OF FLOATING PT. OPERATIONS =  8.20E+06

     CHECK POINT   START OF SOLVER    

     CHECK POINT  END OF SOLVER       

       ELAPSED USER TIME (SEC)      =  0.10000    
       ELAPSED SYSTEM TIME (SEC)    =   0.0000    
       ELAPSED TOTAL CPU TIME (SEC) =  0.10000    
       ELAPSED WALLCLOCK TIME (SEC) =          0

               CONVERGENCE CHECKS FOR EQUILIBRIUM ITERATION     2


 AVERAGE FORCE                       347.       TIME AVG. FORCE        189.    
 LARGEST RESIDUAL FORCE            -5.008E-02   AT NODE        114   DOF  2
   INSTANCE: Instance A                                                                      
 LARGEST INCREMENT OF DISP.         8.499E-03   AT NODE        114   DOF  3
   INSTANCE: Instance A                                                                      
 LARGEST CORRECTION TO DISP.        1.105E-04   AT NODE        114   DOF  3
   INSTANCE: Instance A                                                                      
 ESTIMATE OF DISP.    CORRECTION   -1.458E-06
 FORCE     EQUILIB. ACCEPTED BASED ON SMALL RESIDUAL AND ESTIMATED CORRECTION

 AVERAGE MOMENT                      4.03       TIME AVG. MOMENT       1.91    
 LARGEST RESIDUAL MOMENT            1.107E-03   AT NODE          2   DOF  5
   INSTANCE: Instance A                                                                      
 LARGEST INCREMENT OF ROTATION     -3.177E-02   AT NODE        191   DOF  6
   INSTANCE: Instance A                                                                      
 LARGEST CORRECTION TO ROTATION     3.150E-04   AT NODE          1   DOF  4
   INSTANCE: Instance A                                                                      
          THE MOMENT    EQUILIBRIUM EQUATIONS HAVE CONVERGED

 COMPATIBILITY ERRORS:
    TYPE                NUMBER EXCEEDING TOLERANCE  MAXIMUM ERROR        IN ELEMENT
 BEAM AXIAL                          0                1.690E-09                182
   INSTANCE: Instance A                                                                      

 ITERATION SUMMARY FOR THE INCREMENT:   2 TOTAL ITERATIONS, OF WHICH
   0 ARE SEVERE DISCONTINUITY ITERATIONS AND  2 ARE EQUILIBRIUM ITERATIONS.

 TIME INCREMENT COMPLETED  5.000E-02,  FRACTION OF STEP COMPLETED  0.441    
 STEP TIME COMPLETED       0.441    ,  TOTAL TIME COMPLETED        0.441    


  INCREMENT    13 STARTS. ATTEMPT NUMBER  1, TIME INCREMENT  5.000E-02

  NUMBER OF EQUATIONS =     1256     NUMBER OF FLOATING PT. OPERATIONS =  8.20E+06

     CHECK POINT   START OF SOLVER    

     CHECK POINT  END OF SOLVER       

       ELAPSED USER TIME (SEC)      =   0.0000    
       ELAPSED SYSTEM TIME (SEC)    =   0.0000    
       ELAPSED TOTAL CPU TIME (SEC) =   0.0000    
       ELAPSED WALLCLOCK TIME (SEC) =          0

               CONVERGENCE CHECKS FOR EQUILIBRIUM ITERATION     1


 AVERAGE FORCE                       365.       TIME AVG. FORCE        203.    
 LARGEST RESIDUAL FORCE              2.98       AT NODE        172   DOF  3
   INSTANCE: Instance A                                                                      
 LARGEST INCREMENT OF DISP.         8.250E-03   AT NODE        114   DOF  3
   INSTANCE: Instance A                                                                      
 LARGEST CORRECTION TO DISP.        2.954E-04   AT NODE        212   DOF  2
   INSTANCE: Instance A                                                                      
          FORCE     EQUILIBRIUM NOT ACHIEVED WITHIN TOLERANCE.

 AVERAGE MOMENT                      4.35       TIME AVG. MOMENT       2.10    
 LARGEST RESIDUAL MOMENT            8.570E-02   AT NODE        191   DOF  6
   INSTANCE: Instance A                                                                      
 LARGEST INCREMENT OF ROTATION      3.009E-02   AT NODE          1   DOF  6
   INSTANCE: Instance A                                                                      
 LARGEST CORRECTION TO ROTATION     1.904E-03   AT NODE          1   DOF  4
   INSTANCE: Instance A                                                                      
          MOMENT    EQUILIBRIUM NOT ACHIEVED WITHIN TOLERANCE.

 COMPATIBILITY ERRORS:
    TYPE                NUMBER EXCEEDING TOLERANCE  MAXIMUM ERROR        IN ELEMENT
 BEAM AXIAL                          0                1.054E-07                182
   INSTANCE: Instance A                                                                      

  NUMBER OF EQUATIONS =     1256     NUMBER OF FLOATING PT. OPERATIONS =  8.20E+06

     CHECK POINT   START OF SOLVER    

     CHECK POINT  END OF SOLVER       

       ELAPSED USER TIME (SEC)      =   0.0000    
       ELAPSED SYSTEM TIME (SEC)    =   0.0000    
       ELAPSED TOTAL CPU TIME (SEC) =   0.0000    
       ELAPSED WALLCLOCK TIME (SEC) =          0

               CONVERGENCE CHECKS FOR EQUILIBRIUM ITERATION     2


 AVERAGE FORCE                       367.       TIME AVG. FORCE        203.    
 LARGEST RESIDUAL FORCE             3.884E-02   AT NODE        192   DOF  1
   INSTANCE: Instance A                                                                      
 LARGEST INCREMENT OF DISP.         8.340E-03   AT NODE        114   DOF  3
   INSTANCE: Instance A                                                                      
 LARGEST CORRECTION TO DISP.        8.983E-05   AT NODE        114   DOF  3
   INSTANCE: Instance A                                                                      
 ESTIMATE OF DISP.    CORRECTION    1.172E-06
 FORCE     EQUILIB. ACCEPTED BASED ON SMALL RESIDUAL AND ESTIMATED CORRECTION

 AVERAGE MOMENT                      4.37       TIME AVG. MOMENT       2.10    
 LARGEST RESIDUAL MOMENT           -1.014E-03   AT NODE        192   DOF  5
   INSTANCE: Instance A                                                                      
 LARGEST INCREMENT OF ROTATION      2.981E-02   AT NODE          1   DOF  6
   INSTANCE: Instance A                                                                      
 LARGEST CORRECTION TO ROTATION    -2.865E-04   AT NODE          1   DOF  6
   INSTANCE: Instance A                                                                      
          THE MOMENT    EQUILIBRIUM EQUATIONS HAVE CONVERGED

 COMPATIBILITY ERRORS:
    TYPE                NUMBER EXCEEDING TOLERANCE  MAXIMUM ERROR        IN ELEMENT
 BEAM AXIAL                          0                1.029E-09                182
   INSTANCE: Instance A                                                                      

 ITERATION SUMMARY FOR THE INCREMENT:   2 TOTAL ITERATIONS, OF WHICH
   0 ARE SEVERE DISCONTINUITY ITERATIONS AND  2 ARE EQUILIBRIUM ITERATIONS.

 TIME INCREMENT COMPLETED  5.000E-02,  FRACTION OF STEP COMPLETED  0.491    
 STEP TIME COMPLETED       0.491    ,  TOTAL TIME COMPLETED        0.491    


  INCREMENT    14 STARTS. ATTEMPT NUMBER  1, TIME INCREMENT  5.000E-02

  NUMBER OF EQUATIONS =     1256     NUMBER OF FLOATING PT. OPERATIONS =  8.20E+06

     CHECK POINT   START OF SOLVER    

     CHECK POINT  END OF SOLVER       

       ELAPSED USER TIME (SEC)      =   0.0000    
       ELAPSED SYSTEM TIME (SEC)    =   0.0000    
       ELAPSED TOTAL CPU TIME (SEC) =   0.0000    
       ELAPSED WALLCLOCK TIME (SEC) =          0

               CONVERGENCE CHECKS FOR EQUILIBRIUM ITERATION     1


 AVERAGE FORCE                       384.       TIME AVG. FORCE        216.    
 LARGEST RESIDUAL FORCE              2.37       AT NODE        172   DOF  3
   INSTANCE: Instance A                                                                      
 LARGEST INCREMENT OF DISP.         8.115E-03   AT NODE        114   DOF  3
   INSTANCE: Instance A                                                                      
 LARGEST CORRECTION TO DISP.        2.573E-04   AT NODE        212   DOF  2
   INSTANCE: Instance A                                                                      
          FORCE     EQUILIBRIUM NOT ACHIEVED WITHIN TOLERANCE.

 AVERAGE MOMENT                      4.68       TIME AVG. MOMENT       2.29    
 LARGEST RESIDUAL MOMENT           -7.461E-02   AT NODE          1   DOF  6
   INSTANCE: Instance A                                                                      
 LARGEST INCREMENT OF ROTATION      2.834E-02   AT NODE          1   DOF  6
   INSTANCE: Instance A                                                                      
 LARGEST CORRECTION TO ROTATION     1.693E-03   AT NODE          1   DOF  4
   INSTANCE: Instance A                                                                      
          MOMENT    EQUILIBRIUM NOT ACHIEVED WITHIN TOLERANCE.

 COMPATIBILITY ERRORS:
    TYPE                NUMBER EXCEEDING TOLERANCE  MAXIMUM ERROR        IN ELEMENT
 BEAM AXIAL                          0                8.437E-08                181
   INSTANCE: Instance A                                                                      

  NUMBER OF EQUATIONS =     1256     NUMBER OF FLOATING PT. OPERATIONS =  8.20E+06

     CHECK POINT   START OF SOLVER    

     CHECK POINT  END OF SOLVER       

       ELAPSED USER TIME (SEC)      =   0.0000    
       ELAPSED SYSTEM TIME (SEC)    =   0.0000    
       ELAPSED TOTAL CPU TIME (SEC) =   0.0000    
       ELAPSED WALLCLOCK TIME (SEC) =          0

               CONVERGENCE CHECKS FOR EQUILIBRIUM ITERATION     2


 AVERAGE FORCE                       386.       TIME AVG. FORCE        216.    
 LARGEST RESIDUAL FORCE            -3.992E-02   AT NODE        172   DOF  3
   INSTANCE: Instance A                                                                      
 LARGEST INCREMENT OF DISP.         8.189E-03   AT NODE        114   DOF  3
   INSTANCE: Instance A                                                                      
 LARGEST CORRECTION TO DISP.        7.372E-05   AT NODE        114   DOF  3
   INSTANCE: Instance A                                                                      
          THE FORCE     EQUILIBRIUM EQUATIONS HAVE CONVERGED

 AVERAGE MOMENT                      4.70       TIME AVG. MOMENT       2.29    
 LARGEST RESIDUAL MOMENT            9.318E-04   AT NODE          2   DOF  5
   INSTANCE: Instance A                                                                      
 LARGEST INCREMENT OF ROTATION      2.808E-02   AT NODE          1   DOF  6
   INSTANCE: Instance A                                                                      
 LARGEST CORRECTION TO ROTATION     2.636E-04   AT NODE        191   DOF  6
   INSTANCE: Instance A                                                                      
          THE MOMENT    EQUILIBRIUM EQUATIONS HAVE CONVERGED

 COMPATIBILITY ERRORS:
    TYPE                NUMBER EXCEEDING TOLERANCE  MAXIMUM ERROR        IN ELEMENT
 BEAM AXIAL                          0                6.361E-10                182
   INSTANCE: Instance A                                                                      

 ITERATION SUMMARY FOR THE INCREMENT:   2 TOTAL ITERATIONS, OF WHICH
   0 ARE SEVERE DISCONTINUITY ITERATIONS AND  2 ARE EQUILIBRIUM ITERATIONS.

 TIME INCREMENT COMPLETED  5.000E-02,  FRACTION OF STEP COMPLETED  0.541    
 STEP TIME COMPLETED       0.541    ,  TOTAL TIME COMPLETED        0.541    


  INCREMENT    15 STARTS. ATTEMPT NUMBER  1, TIME INCREMENT  5.000E-02

  NUMBER OF EQUATIONS =     1256     NUMBER OF FLOATING PT. OPERATIONS =  8.20E+06

     CHECK POINT   START OF SOLVER    

     CHECK POINT  END OF SOLVER       

       ELAPSED USER TIME (SEC)      =   0.0000    
       ELAPSED SYSTEM TIME (SEC)    =   0.0000    
       ELAPSED TOTAL CPU TIME (SEC) =   0.0000    
       ELAPSED WALLCLOCK TIME (SEC) =          0

               CONVERGENCE CHECKS FOR EQUILIBRIUM ITERATION     1


 AVERAGE FORCE                       400.       TIME AVG. FORCE        228.    
 LARGEST RESIDUAL FORCE              1.90       AT NODE         20   DOF  3
   INSTANCE: Instance A                                                                      
 LARGEST INCREMENT OF DISP.         7.981E-03   AT NODE        114   DOF  3
   INSTANCE: Instance A                                                                      
 LARGEST CORRECTION TO DISP.        2.258E-04   AT NODE        210   DOF  2
   INSTANCE: Instance A                                                                      
          FORCE     EQUILIBRIUM NOT ACHIEVED WITHIN TOLERANCE.

 AVERAGE MOMENT                      4.99       TIME AVG. MOMENT       2.47    
 LARGEST RESIDUAL MOMENT           -6.566E-02   AT NODE          1   DOF  6
   INSTANCE: Instance A                                                                      
 LARGEST INCREMENT OF ROTATION     -2.679E-02   AT NODE        191   DOF  6
   INSTANCE: Instance A                                                                      
 LARGEST CORRECTION TO ROTATION     1.515E-03   AT NODE          1   DOF  4
   INSTANCE: Instance A                                                                      
          MOMENT    EQUILIBRIUM NOT ACHIEVED WITHIN TOLERANCE.

 COMPATIBILITY ERRORS:
    TYPE                NUMBER EXCEEDING TOLERANCE  MAXIMUM ERROR        IN ELEMENT
 BEAM AXIAL                          0                6.806E-08                182
   INSTANCE: Instance A                                                                      

  NUMBER OF EQUATIONS =     1256     NUMBER OF FLOATING PT. OPERATIONS =  8.20E+06

     CHECK POINT   START OF SOLVER    

     CHECK POINT  END OF SOLVER       

       ELAPSED USER TIME (SEC)      =   0.0000    
       ELAPSED SYSTEM TIME (SEC)    =   0.0000    
       ELAPSED TOTAL CPU TIME (SEC) =   0.0000    
       ELAPSED WALLCLOCK TIME (SEC) =          0

               CONVERGENCE CHECKS FOR EQUILIBRIUM ITERATION     2


 AVERAGE FORCE                       402.       TIME AVG. FORCE        228.    
 LARGEST RESIDUAL FORCE            -4.236E-02   AT NODE        172   DOF  3
   INSTANCE: Instance A                                                                      
 LARGEST INCREMENT OF DISP.         8.042E-03   AT NODE        114   DOF  3
   INSTANCE: Instance A                                                                      
 LARGEST CORRECTION TO DISP.        6.091E-05   AT NODE        114   DOF  3
   INSTANCE: Instance A                                                                      
          THE FORCE     EQUILIBRIUM EQUATIONS HAVE CONVERGED

 AVERAGE MOMENT                      5.02       TIME AVG. MOMENT       2.47    
 LARGEST RESIDUAL MOMENT           -8.581E-04   AT NODE        192   DOF  5
   INSTANCE: Instance A                                                                      
 LARGEST INCREMENT OF ROTATION     -2.655E-02   AT NODE        191   DOF  6
   INSTANCE: Instance A                                                                      
 LARGEST CORRECTION TO ROTATION    -2.430E-04   AT NODE          1   DOF  6
   INSTANCE: Instance A                                                                      
          THE MOMENT    EQUILIBRIUM EQUATIONS HAVE CONVERGED

 COMPATIBILITY ERRORS:
    TYPE                NUMBER EXCEEDING TOLERANCE  MAXIMUM ERROR        IN ELEMENT
 BEAM AXIAL                          0                3.968E-10                181
   INSTANCE: Instance A                                                                      

 ITERATION SUMMARY FOR THE INCREMENT:   2 TOTAL ITERATIONS, OF WHICH
   0 ARE SEVERE DISCONTINUITY ITERATIONS AND  2 ARE EQUILIBRIUM ITERATIONS.

 TIME INCREMENT COMPLETED  5.000E-02,  FRACTION OF STEP COMPLETED  0.591    
 STEP TIME COMPLETED       0.591    ,  TOTAL TIME COMPLETED        0.591    


  INCREMENT    16 STARTS. ATTEMPT NUMBER  1, TIME INCREMENT  5.000E-02

  NUMBER OF EQUATIONS =     1256     NUMBER OF FLOATING PT. OPERATIONS =  8.20E+06
[...]
          MOMENT    EQUILIBRIUM NOT ACHIEVED WITHIN TOLERANCE.

 COMPATIBILITY ERRORS:
    TYPE                NUMBER EXCEEDING TOLERANCE  MAXIMUM ERROR        IN ELEMENT
 BEAM AXIAL                          0                2.037E-06                181
   INSTANCE: Instance A                                                                      

  NUMBER OF EQUATIONS =     1256     NUMBER OF FLOATING PT. OPERATIONS =  8.20E+06

     CHECK POINT   START OF SOLVER    

     CHECK POINT  END OF SOLVER       

       ELAPSED USER TIME (SEC)      =   0.0000    
       ELAPSED SYSTEM TIME (SEC)    =   0.0000    
       ELAPSED TOTAL CPU TIME (SEC) =   0.0000    
       ELAPSED WALLCLOCK TIME (SEC) =          0

               CONVERGENCE CHECKS FOR EQUILIBRIUM ITERATION     3


 AVERAGE FORCE                      3.541E+03   TIME AVG. FORCE       2.751E+03
 LARGEST RESIDUAL FORCE             2.055E-02   AT NODE        210   DOF  2
   INSTANCE: Instance A                                                                      
 LARGEST INCREMENT OF DISP.        -1.421E-03   AT NODE        152   DOF  3
   INSTANCE: Instance A                                                                      
 LARGEST CORRECTION TO DISP.       -1.820E-05   AT NODE        209   DOF  1
   INSTANCE: Instance A                                                                      
 ESTIMATE OF DISP.    CORRECTION   -6.208E-08
 FORCE     EQUILIB. ACCEPTED BASED ON SMALL RESIDUAL AND ESTIMATED CORRECTION

 AVERAGE MOMENT                      6.93       TIME AVG. MOMENT       5.50    
 LARGEST RESIDUAL MOMENT            1.252E-03   AT NODE         20   DOF  6
   INSTANCE: Instance A                                                                      
 LARGEST INCREMENT OF ROTATION      2.673E-02   AT NODE          2   DOF  6
   INSTANCE: Instance A                                                                      
 LARGEST CORRECTION TO ROTATION    -4.487E-05   AT NODE        114   DOF  5
   INSTANCE: Instance A                                                                      
          THE MOMENT    EQUILIBRIUM EQUATIONS HAVE CONVERGED

 COMPATIBILITY ERRORS:
    TYPE                NUMBER EXCEEDING TOLERANCE  MAXIMUM ERROR        IN ELEMENT
 BEAM AXIAL                          0                5.096E-10                181
   INSTANCE: Instance A                                                                      

 ITERATION SUMMARY FOR THE INCREMENT:   3 TOTAL ITERATIONS, OF WHICH
   0 ARE SEVERE DISCONTINUITY ITERATIONS AND  3 ARE EQUILIBRIUM ITERATIONS.

 TIME INCREMENT COMPLETED  5.000E-02,  FRACTION OF STEP COMPLETED  0.891    
 STEP TIME COMPLETED       0.891    ,  TOTAL TIME COMPLETED         15.9    


  INCREMENT    22 STARTS. ATTEMPT NUMBER  1, TIME INCREMENT  5.000E-02

  NUMBER OF EQUATIONS =     1256     NUMBER OF FLOATING PT. OPERATIONS =  8.20E+06

     CHECK POINT   START OF SOLVER    

     CHECK POINT  END OF SOLVER       

       ELAPSED USER TIME (SEC)      =   0.0000    
       ELAPSED SYSTEM TIME (SEC)    =   0.0000    
       ELAPSED TOTAL CPU TIME (SEC) =   0.0000    
       ELAPSED WALLCLOCK TIME (SEC) =          0
 

 ***WARNING: THE SYSTEM MATRIX HAS 2 NEGATIVE EIGENVALUES.
             EXPLANATIONS ARE SUGGESTED AFTER THE FIRST OCCURRENCE OF THIS MESSAGE.

               CONVERGENCE CHECKS FOR EQUILIBRIUM ITERATION     1


 AVERAGE FORCE                      3.647E+03   TIME AVG. FORCE       2.792E+03
 LARGEST RESIDUAL FORCE             -3.46       AT NODE        211   DOF  3
   INSTANCE: Instance A                                                                      
 LARGEST INCREMENT OF DISP.        -1.196E-03   AT NODE        133   DOF  3
   INSTANCE: Instance A                                                                      
 LARGEST CORRECTION TO DISP.        3.494E-04   AT NODE        209   DOF  3
   INSTANCE: Instance A                                                                      
 ESTIMATE OF DISP.    CORRECTION   -5.360E-06
 FORCE     EQUILIB. ACCEPTED BASED ON SMALL RESIDUAL AND ESTIMATED CORRECTION

 AVERAGE MOMENT                      7.12       TIME AVG. MOMENT       5.57    
 LARGEST RESIDUAL MOMENT           -2.336E-02   AT NODE          1   DOF  4
   INSTANCE: Instance A                                                                      
 LARGEST INCREMENT OF ROTATION      2.804E-02   AT NODE          2   DOF  6
   INSTANCE: Instance A                                                                      
 LARGEST CORRECTION TO ROTATION     1.761E-03   AT NODE          3   DOF  6
   INSTANCE: Instance A                                                                      
 ESTIMATE OF ROTATION CORRECTION   -1.818E-05
 MOMENT    EQUILIB. ACCEPTED BASED ON SMALL RESIDUAL AND ESTIMATED CORRECTION

 COMPATIBILITY ERRORS:
    TYPE                NUMBER EXCEEDING TOLERANCE  MAXIMUM ERROR        IN ELEMENT
 BEAM AXIAL                          0                1.544E-07                181
   INSTANCE: Instance A                                                                      

 ITERATION SUMMARY FOR THE INCREMENT:   1 TOTAL ITERATIONS, OF WHICH
   0 ARE SEVERE DISCONTINUITY ITERATIONS AND  1 ARE EQUILIBRIUM ITERATIONS.

 TIME INCREMENT COMPLETED  5.000E-02,  FRACTION OF STEP COMPLETED  0.941    
 STEP TIME COMPLETED       0.941    ,  TOTAL TIME COMPLETED         15.9    


  INCREMENT    23 STARTS. ATTEMPT NUMBER  1, TIME INCREMENT  5.000E-02

  NUMBER OF EQUATIONS =     1256     NUMBER OF FLOATING PT. OPERATIONS =  8.20E+06

     CHECK POINT   START OF SOLVER    

     CHECK POINT  END OF SOLVER       

       ELAPSED USER TIME (SEC)      =   0.0000    
       ELAPSED SYSTEM TIME (SEC)    =   0.0000    
       ELAPSED TOTAL CPU TIME (SEC) =   0.0000    
       ELAPSED WALLCLOCK TIME (SEC) =          0
 

 ***WARNING: THE SYSTEM MATRIX HAS 2 NEGATIVE EIGENVALUES.
             EXPLANATIONS ARE SUGGESTED AFTER THE FIRST OCCURRENCE OF THIS MESSAGE.

               CONVERGENCE CHECKS FOR EQUILIBRIUM ITERATION     1


 AVERAGE FORCE                      3.743E+03   TIME AVG. FORCE       2.833E+03
 LARGEST RESIDUAL FORCE             -20.6       AT NODE        211   DOF  3
   INSTANCE: Instance A                                                                      
 LARGEST INCREMENT OF DISP.        -2.163E-03   AT NODE        209   DOF  1
   INSTANCE: Instance A                                                                      
 LARGEST CORRECTION TO DISP.       -1.355E-03   AT NODE        209   DOF  1
   INSTANCE: Instance A                                                                      
          FORCE     EQUILIBRIUM NOT ACHIEVED WITHIN TOLERANCE.

 AVERAGE MOMENT                      7.30       TIME AVG. MOMENT       5.65    
 LARGEST RESIDUAL MOMENT            0.118       AT NODE        179   DOF  4
   INSTANCE: Instance A                                                                      
 LARGEST INCREMENT OF ROTATION      3.093E-02   AT NODE          2   DOF  6
   INSTANCE: Instance A                                                                      
 LARGEST CORRECTION TO ROTATION     3.464E-03   AT NODE          3   DOF  6
   INSTANCE: Instance A                                                                      
          MOMENT    EQUILIBRIUM NOT ACHIEVED WITHIN TOLERANCE.

 COMPATIBILITY ERRORS:
    TYPE                NUMBER EXCEEDING TOLERANCE  MAXIMUM ERROR        IN ELEMENT
 BEAM AXIAL                          0                4.956E-06                181
   INSTANCE: Instance A                                                                      

  NUMBER OF EQUATIONS =     1256     NUMBER OF FLOATING PT. OPERATIONS =  8.20E+06

     CHECK POINT   START OF SOLVER    

     CHECK POINT  END OF SOLVER       

       ELAPSED USER TIME (SEC)      =   0.0000    
       ELAPSED SYSTEM TIME (SEC)    =   0.0000    
       ELAPSED TOTAL CPU TIME (SEC) =   0.0000    
       ELAPSED WALLCLOCK TIME (SEC) =          0

               CONVERGENCE CHECKS FOR EQUILIBRIUM ITERATION     2


 AVERAGE FORCE                      3.744E+03   TIME AVG. FORCE       2.833E+03
 LARGEST RESIDUAL FORCE              35.3       AT NODE         96   DOF  3
   INSTANCE: Instance A                                                                      
 LARGEST INCREMENT OF DISP.        -1.049E-03   AT NODE        152   DOF  3
   INSTANCE: Instance A                                                                      
 LARGEST CORRECTION TO DISP.        1.831E-03   AT NODE        209   DOF  1
   INSTANCE: Instance A                                                                      
          FORCE     EQUILIBRIUM NOT ACHIEVED WITHIN TOLERANCE.

 AVERAGE MOMENT                      7.30       TIME AVG. MOMENT       5.65    
 LARGEST RESIDUAL MOMENT            0.200       AT NODE        178   DOF  4
   INSTANCE: Instance A                                                                      
 LARGEST INCREMENT OF ROTATION      2.855E-02   AT NODE          2   DOF  6
   INSTANCE: Instance A                                                                      
 LARGEST CORRECTION TO ROTATION     3.752E-03   AT NODE          2   DOF  5
   INSTANCE: Instance A                                                                      
          MOMENT    EQUILIBRIUM NOT ACHIEVED WITHIN TOLERANCE.

 COMPATIBILITY ERRORS:
    TYPE                NUMBER EXCEEDING TOLERANCE  MAXIMUM ERROR        IN ELEMENT
 BEAM AXIAL                          0                9.677E-06                181
   INSTANCE: Instance A                                                                      

  NUMBER OF EQUATIONS =     1256     NUMBER OF FLOATING PT. OPERATIONS =  8.20E+06

     CHECK POINT   START OF SOLVER    

     CHECK POINT  END OF SOLVER       

       ELAPSED USER TIME (SEC)      =   0.0000    
       ELAPSED SYSTEM TIME (SEC)    =   0.0000    
       ELAPSED TOTAL CPU TIME (SEC) =   0.0000    
       ELAPSED WALLCLOCK TIME (SEC) =          0

               CONVERGENCE CHECKS FOR EQUILIBRIUM ITERATION     3


 AVERAGE FORCE                      3.761E+03   TIME AVG. FORCE       2.834E+03
 LARGEST RESIDUAL FORCE             0.367       AT NODE         18   DOF  1
   INSTANCE: Instance A                                                                      
 LARGEST INCREMENT OF DISP.        -1.132E-03   AT NODE        190   DOF  3
   INSTANCE: Instance A                                                                      
 LARGEST CORRECTION TO DISP.        2.000E-04   AT NODE         19   DOF  1
   INSTANCE: Instance A                                                                      
 ESTIMATE OF DISP.    CORRECTION   -3.576E-06
 FORCE     EQUILIB. ACCEPTED BASED ON SMALL RESIDUAL AND ESTIMATED CORRECTION

 AVERAGE MOMENT                      7.32       TIME AVG. MOMENT       5.65    
 LARGEST RESIDUAL MOMENT           -3.085E-03   AT NODE         22   DOF  4
   INSTANCE: Instance A                                                                      
 LARGEST INCREMENT OF ROTATION      2.829E-02   AT NODE          2   DOF  6
   INSTANCE: Instance A                                                                      
 LARGEST CORRECTION TO ROTATION     4.991E-04   AT NODE        114   DOF  5
   INSTANCE: Instance A                                                                      
 ESTIMATE OF ROTATION CORRECTION   -1.301E-05
 MOMENT    EQUILIB. ACCEPTED BASED ON SMALL RESIDUAL AND ESTIMATED CORRECTION

 COMPATIBILITY ERRORS:
    TYPE                NUMBER EXCEEDING TOLERANCE  MAXIMUM ERROR        IN ELEMENT
 BEAM AXIAL                          0                6.366E-08                181
   INSTANCE: Instance A                                                                      

 ITERATION SUMMARY FOR THE INCREMENT:   3 TOTAL ITERATIONS, OF WHICH
   0 ARE SEVERE DISCONTINUITY ITERATIONS AND  3 ARE EQUILIBRIUM ITERATIONS.

 TIME INCREMENT COMPLETED  5.000E-02,  FRACTION OF STEP COMPLETED  0.991    
 STEP TIME COMPLETED       0.991    ,  TOTAL TIME COMPLETED         16.0    


  INCREMENT    24 STARTS. ATTEMPT NUMBER  1, TIME INCREMENT  8.750E-03

  NUMBER OF EQUATIONS =     1256     NUMBER OF FLOATING PT. OPERATIONS =  8.20E+06

     CHECK POINT   START OF SOLVER    

     CHECK POINT  END OF SOLVER       

       ELAPSED USER TIME (SEC)      =   0.0000    
       ELAPSED SYSTEM TIME (SEC)    =   0.0000    
       ELAPSED TOTAL CPU TIME (SEC) =   0.0000    
       ELAPSED WALLCLOCK TIME (SEC) =          0

               CONVERGENCE CHECKS FOR EQUILIBRIUM ITERATION     1


 AVERAGE FORCE                      3.773E+03   TIME AVG. FORCE       2.873E+03
 LARGEST RESIDUAL FORCE             0.406       AT NODE          2   DOF  1
   INSTANCE: Instance A                                                                      
 LARGEST INCREMENT OF DISP.        -2.748E-04   AT NODE        209   DOF  3
   INSTANCE: Instance A                                                                      
 LARGEST CORRECTION TO DISP.       -2.391E-04   AT NODE        114   DOF  1
   INSTANCE: Instance A                                                                      
          DISP.    CORRECTION TOO LARGE COMPARED TO DISP.    INCREMENT

 AVERAGE MOMENT                      7.36       TIME AVG. MOMENT       5.72    
 LARGEST RESIDUAL MOMENT           -8.088E-03   AT NODE          1   DOF  4
   INSTANCE: Instance A                                                                      
 LARGEST INCREMENT OF ROTATION      7.123E-03   AT NODE          2   DOF  6
   INSTANCE: Instance A                                                                      
 LARGEST CORRECTION TO ROTATION     2.173E-03   AT NODE          2   DOF  6
   INSTANCE: Instance A                                                                      
 ESTIMATE OF ROTATION CORRECTION   -5.225E-05
 MOMENT    EQUILIB. ACCEPTED BASED ON SMALL RESIDUAL AND ESTIMATED CORRECTION

 COMPATIBILITY ERRORS:
    TYPE                NUMBER EXCEEDING TOLERANCE  MAXIMUM ERROR        IN ELEMENT
 BEAM AXIAL                          0                6.592E-08                181
   INSTANCE: Instance A                                                                      

  NUMBER OF EQUATIONS =     1256     NUMBER OF FLOATING PT. OPERATIONS =  8.20E+06

     CHECK POINT   START OF SOLVER    

     CHECK POINT  END OF SOLVER       

       ELAPSED USER TIME (SEC)      =   0.0000    
       ELAPSED SYSTEM TIME (SEC)    =   0.0000    
       ELAPSED TOTAL CPU TIME (SEC) =   0.0000    
       ELAPSED WALLCLOCK TIME (SEC) =          0

               CONVERGENCE CHECKS FOR EQUILIBRIUM ITERATION     2


 AVERAGE FORCE                      3.773E+03   TIME AVG. FORCE       2.873E+03
 LARGEST RESIDUAL FORCE            -8.642E-02   AT NODE        171   DOF  2
   INSTANCE: Instance A                                                                      
 LARGEST INCREMENT OF DISP.        -1.794E-04   AT NODE        196   DOF  3
   INSTANCE: Instance A                                                                      
 LARGEST CORRECTION TO DISP.        1.090E-04   AT NODE        209   DOF  3
   INSTANCE: Instance A                                                                      
          DISP.    CORRECTION TOO LARGE COMPARED TO DISP.    INCREMENT

 AVERAGE MOMENT                      7.37       TIME AVG. MOMENT       5.72    
 LARGEST RESIDUAL MOMENT            9.287E-04   AT NODE         21   DOF  4
   INSTANCE: Instance A                                                                      
 LARGEST INCREMENT OF ROTATION      6.920E-03   AT NODE          2   DOF  6
   INSTANCE: Instance A                                                                      
 LARGEST CORRECTION TO ROTATION    -2.395E-04   AT NODE         80   DOF  6
   INSTANCE: Instance A                                                                      
 ESTIMATE OF ROTATION CORRECTION    2.751E-05
 MOMENT    EQUILIB. ACCEPTED BASED ON SMALL RESIDUAL AND ESTIMATED CORRECTION

 COMPATIBILITY ERRORS:
    TYPE                NUMBER EXCEEDING TOLERANCE  MAXIMUM ERROR        IN ELEMENT
 BEAM AXIAL                          0                2.089E-08                181
   INSTANCE: Instance A                                                                      

  NUMBER OF EQUATIONS =     1256     NUMBER OF FLOATING PT. OPERATIONS =  8.20E+06

     CHECK POINT   START OF SOLVER    

     CHECK POINT  END OF SOLVER       

       ELAPSED USER TIME (SEC)      =   0.0000    
       ELAPSED SYSTEM TIME (SEC)    =   0.0000    
       ELAPSED TOTAL CPU TIME (SEC) =   0.0000    
       ELAPSED WALLCLOCK TIME (SEC) =          0

               CONVERGENCE CHECKS FOR EQUILIBRIUM ITERATION     3


 AVERAGE FORCE                      3.773E+03   TIME AVG. FORCE       2.873E+03
 LARGEST RESIDUAL FORCE            -3.583E-04   AT NODE          2   DOF  2
   INSTANCE: Instance A                                                                      
 LARGEST INCREMENT OF DISP.        -1.793E-04   AT NODE          1   DOF  1
   INSTANCE: Instance A                                                                      
 LARGEST CORRECTION TO DISP.        9.642E-07   AT NODE        209   DOF  3
   INSTANCE: Instance A                                                                      
          THE FORCE     EQUILIBRIUM EQUATIONS HAVE CONVERGED

 AVERAGE MOMENT                      7.38       TIME AVG. MOMENT       5.72    
 LARGEST RESIDUAL MOMENT           -3.005E-05   AT NODE        197   DOF  6
   INSTANCE: Instance A                                                                      
 LARGEST INCREMENT OF ROTATION      6.918E-03   AT NODE          2   DOF  6
   INSTANCE: Instance A                                                                      
 LARGEST CORRECTION TO ROTATION     3.109E-06   AT NODE        178   DOF  4
   INSTANCE: Instance A                                                                      
          THE MOMENT    EQUILIBRIUM EQUATIONS HAVE CONVERGED

 COMPATIBILITY ERRORS:
    TYPE                NUMBER EXCEEDING TOLERANCE  MAXIMUM ERROR        IN ELEMENT
 BEAM AXIAL                          0                2.879E-13                181
   INSTANCE: Instance A                                                                      

 ITERATION SUMMARY FOR THE INCREMENT:   3 TOTAL ITERATIONS, OF WHICH
   0 ARE SEVERE DISCONTINUITY ITERATIONS AND  3 ARE EQUILIBRIUM ITERATIONS.

 TIME INCREMENT COMPLETED  8.750E-03,  FRACTION OF STEP COMPLETED   1.00    
 STEP TIME COMPLETED        1.00    ,  TOTAL TIME COMPLETED         16.0    


          THE ANALYSIS HAS BEEN COMPLETED



     ANALYSIS SUMMARY:
     TOTAL OF        384  INCREMENTS
                       0  CUTBACKS IN AUTOMATIC INCREMENTATION
                     706  ITERATIONS INCLUDING CONTACT ITERATIONS IF PRESENT
                     706  PASSES THROUGH THE EQUATION SOLVER OF WHICH 
                     706  INVOLVE MATRIX DECOMPOSITION, INCLUDING
                       0  DECOMPOSITION(S) OF THE MASS MATRIX
                       1  REORDERING OF EQUATIONS TO MINIMIZE WAVEFRONT
                       0  ADDITIONAL RESIDUAL EVALUATIONS FOR LINE SEARCHES
                       0  ADDITIONAL OPERATOR EVALUATIONS FOR LINE SEARCHES
                       8  WARNING MESSAGES DURING USER INPUT PROCESSING
                      82  WARNING MESSAGES DURING ANALYSIS
                       0  ANALYSIS WARNINGS ARE NUMERICAL PROBLEM MESSAGES
                      82  ANALYSIS WARNINGS ARE NEGATIVE EIGENVALUE MESSAGES
                       0  ERROR MESSAGES



     JOB TIME SUMMARY
       USER TIME (SEC)      =   36.600    
       SYSTEM TIME (SEC)    =   5.5000    
       TOTAL CPU TIME (SEC) =   42.100    
       WALLCLOCK TIME (SEC) =         45
