1

   Abaqus 6.12-1                                  Date 16-déc.-2016   Time 10:15:06
   For use by  under license from Dassault Systemes or its subsidiary.

                                                                                 
                                                                                 
 STEP    1     INCREMENT     1     STEP TIME    0.00    


                        S T E P       1     S T A T I C   A N A L Y S I S


                                                                                          

     AUTOMATIC TIME CONTROL WITH -
          A SUGGESTED INITIAL TIME INCREMENT OF                1.000E-02
          AND A TOTAL TIME PERIOD OF                            1.00    
          THE MINIMUM TIME INCREMENT ALLOWED IS                1.000E-06
          THE MAXIMUM TIME INCREMENT ALLOWED IS                5.000E-02

     LINEAR EQUATION SOLVER TYPE         DIRECT SPARSE

 CONVERGENCE TOLERANCE PARAMETERS FOR FORCE    
     CRITERION FOR RESIDUAL FORCE     FOR A NONLINEAR PROBLEM          5.000E-03
     CRITERION FOR DISP.    CORRECTION IN A NONLINEAR PROBLEM          1.000E-02
     INITIAL VALUE OF TIME AVERAGE FORCE                               1.000E-02
     AVERAGE FORCE     IS TIME AVERAGE FORCE    
     ALTERNATE CRIT. FOR RESIDUAL FORCE     FOR A NONLINEAR PROBLEM    2.000E-02
     CRITERION FOR ZERO FORCE     RELATIVE TO TIME AVRG. FORCE         1.000E-05
     CRITERION FOR RESIDUAL FORCE     WHEN THERE IS ZERO FLUX          1.000E-05
     CRITERION FOR DISP.    CORRECTION WHEN THERE IS ZERO FLUX         1.000E-03
     CRITERION FOR RESIDUAL FORCE     FOR A LINEAR INCREMENT           1.000E-08
     FIELD CONVERSION RATIO                                             1.00    
     CRITERION FOR ZERO FORCE     REL. TO TIME AVRG. MAX. FORCE        1.000E-05
     CRITERION FOR ZERO DISP.    RELATIVE TO CHARACTERISTIC LENGTH     1.000E-08

 CONVERGENCE TOLERANCE PARAMETERS FOR MOMENT   
     CRITERION FOR RESIDUAL MOMENT    FOR A NONLINEAR PROBLEM          5.000E-03
     CRITERION FOR ROTATION CORRECTION IN A NONLINEAR PROBLEM          1.000E-02
     INITIAL VALUE OF TIME AVERAGE MOMENT                              1.000E-02
     AVERAGE MOMENT    IS TIME AVERAGE MOMENT   
     ALTERNATE CRIT. FOR RESIDUAL MOMENT    FOR A NONLINEAR PROBLEM    2.000E-02
     CRITERION FOR ZERO MOMENT    RELATIVE TO TIME AVRG. MOMENT        1.000E-05
     CRITERION FOR RESIDUAL MOMENT    WHEN THERE IS ZERO FLUX          1.000E-05
     CRITERION FOR ROTATION CORRECTION WHEN THERE IS ZERO FLUX         1.000E-03
     CRITERION FOR RESIDUAL MOMENT    FOR A LINEAR INCREMENT           1.000E-08
     FIELD CONVERSION RATIO                                             1.00    
     CRITERION FOR ZERO MOMENT    REL. TO TIME AVRG. MAX. MOMENT       1.000E-05

     VOLUMETRIC STRAIN COMPATIBILITY TOLERANCE FOR HYBRID SOLIDS       1.000E-05
     AXIAL STRAIN COMPATIBILITY TOLERANCE FOR HYBRID BEAMS             1.000E-05
     TRANS. SHEAR STRAIN COMPATIBILITY TOLERANCE FOR HYBRID BEAMS      1.000E-05
     SOFT CONTACT CONSTRAINT COMPATIBILITY TOLERANCE FOR P>P0          5.000E-03
     SOFT CONTACT CONSTRAINT COMPATIBILITY TOLERANCE FOR P=0.0         0.100    
     CONTACT FORCE ERROR TOLERANCE FOR CONVERT SDI=YES                 1.00    
     DISPLACEMENT COMPATIBILITY TOLERANCE FOR DCOUP ELEMENTS           1.000E-05
     ROTATION COMPATIBILITY TOLERANCE FOR DCOUP ELEMENTS               1.000E-05

 EQUILIBRIUM WILL BE CHECKED FOR SEVERE DISCONTINUITY ITERATIONS

 TIME INCREMENTATION CONTROL PARAMETERS:
     FIRST EQUILIBRIUM ITERATION FOR CONSECUTIVE DIVERGENCE CHECK              4
     EQUILIBRIUM ITERATION AT WHICH LOG. CONVERGENCE RATE CHECK BEGINS         8
     EQUILIBRIUM ITERATION AFTER WHICH ALTERNATE RESIDUAL IS USED              9
     MAXIMUM EQUILIBRIUM ITERATIONS ALLOWED                                   16
     EQUILIBRIUM ITERATION COUNT FOR CUT-BACK IN NEXT INCREMENT               10
     MAXIMUM EQUILIB. ITERS IN TWO INCREMENTS FOR TIME INCREMENT INCREASE      4
     MAXIMUM ITERATIONS FOR SEVERE DISCONTINUITIES                            50
     MAXIMUM CUT-BACKS ALLOWED IN AN INCREMENT                                 5
     MAXIMUM DISCON. ITERS IN TWO INCREMENTS FOR TIME INCREMENT INCREASE      50
     MAXIMUM CONTACT AUGMENTATIONS FOR *SURFACE BEHAVIOR,AUGMENTED LAGRANGE   50
     CUT-BACK FACTOR AFTER DIVERGENCE                                 0.2500    
     CUT-BACK FACTOR FOR TOO SLOW CONVERGENCE                         0.5000    
     CUT-BACK FACTOR AFTER TOO MANY EQUILIBRIUM ITERATIONS            0.7500    
     CUT-BACK FACTOR AFTER TOO MANY SEVERE DISCONTINUITY ITERATIONS   0.2500    
     CUT-BACK FACTOR AFTER PROBLEMS IN ELEMENT ASSEMBLY               0.2500    
     INCREASE FACTOR AFTER TWO INCREMENTS THAT CONVERGE QUICKLY        1.500    
     MAX. TIME INCREMENT INCREASE FACTOR ALLOWED                       1.500    
     MAX. TIME INCREMENT INCREASE FACTOR ALLOWED (DYNAMICS)            1.250    
     MAX. TIME INCREMENT INCREASE FACTOR ALLOWED (DIFFUSION)           2.000    
     MINIMUM TIME INCREMENT RATIO FOR EXTRAPOLATION TO OCCUR          0.1000    
     MAX. RATIO OF TIME INCREMENT TO STABILITY LIMIT                   1.000    
     FRACTION OF STABILITY LIMIT FOR NEW TIME INCREMENT               0.9500    
     TIME INCREMENT INCREASE FACTOR BEFORE A TIME POINT                1.000    
     GLOBAL STABILIZATION CONTROL IS NOT USED

          PRINT OF INCREMENT NUMBER, TIME, ETC., EVERY    1  INCREMENTS

     THE MAXIMUM NUMBER OF INCREMENTS IN THIS STEP IS                     200

          LARGE DISPLACEMENT THEORY WILL BE USED

     LINEAR EXTRAPOLATION WILL BE USED

     CHARACTERISTIC ELEMENT LENGTH     5.842E-02

     DETAILS REGARDING ACTUAL SOLUTION WAVEFRONT REQUESTED

     DETAILED OUTPUT OF DIAGNOSTICS TO DATABASE REQUESTED

     PRINT OF INCREMENT NUMBER, TIME, ETC., TO THE MESSAGE FILE EVERY     1  INCREMENTS

     EQUATIONS ARE BEING REORDERED TO MINIMIZE WAVEFRONT

     COLLECTING MODEL CONSTRAINT INFORMATION FOR OVERCONSTRAINT CHECKS

     COLLECTING STEP CONSTRAINT INFORMATION FOR OVERCONSTRAINT CHECKS


  INCREMENT     1 STARTS. ATTEMPT NUMBER  1, TIME INCREMENT  1.000E-02

  NUMBER OF EQUATIONS =     1256     NUMBER OF FLOATING PT. OPERATIONS =  8.20E+06

     CHECK POINT   START OF SOLVER    

     CHECK POINT  END OF SOLVER       

       ELAPSED USER TIME (SEC)      =   0.0000    
       ELAPSED SYSTEM TIME (SEC)    =   0.0000    
       ELAPSED TOTAL CPU TIME (SEC) =   0.0000    
       ELAPSED WALLCLOCK TIME (SEC) =          0

               CONVERGENCE CHECKS FOR EQUILIBRIUM ITERATION     1


 AVERAGE FORCE                       6.25       TIME AVG. FORCE        6.25    
 LARGEST RESIDUAL FORCE              24.6       AT NODE          2   DOF  2
   INSTANCE: Instance A                                                                      
 LARGEST INCREMENT OF DISP.         1.253E-03   AT NODE        114   DOF  3
   INSTANCE: Instance A                                                                      
 LARGEST CORRECTION TO DISP.        1.253E-03   AT NODE        114   DOF  3
   INSTANCE: Instance A                                                                      
          FORCE     EQUILIBRIUM NOT ACHIEVED WITHIN TOLERANCE.

 AVERAGE MOMENT                     6.569E-02   TIME AVG. MOMENT      6.569E-02
 LARGEST RESIDUAL MOMENT            9.118E-02   AT NODE         21   DOF  4
   INSTANCE: Instance A                                                                      
 LARGEST INCREMENT OF ROTATION      5.783E-03   AT NODE          1   DOF  6
   INSTANCE: Instance A                                                                      
 LARGEST CORRECTION TO ROTATION     5.783E-03   AT NODE          1   DOF  6
   INSTANCE: Instance A                                                                      
          MOMENT    EQUILIBRIUM NOT ACHIEVED WITHIN TOLERANCE.

 COMPATIBILITY ERRORS:
    TYPE                NUMBER EXCEEDING TOLERANCE  MAXIMUM ERROR        IN ELEMENT
 BEAM AXIAL                          0                1.938E-07                182
   INSTANCE: Instance A                                                                      

  NUMBER OF EQUATIONS =     1256     NUMBER OF FLOATING PT. OPERATIONS =  8.20E+06

     CHECK POINT   START OF SOLVER    

     CHECK POINT  END OF SOLVER       

       ELAPSED USER TIME (SEC)      =   0.0000    
       ELAPSED SYSTEM TIME (SEC)    =   0.0000    
       ELAPSED TOTAL CPU TIME (SEC) =   0.0000    
       ELAPSED WALLCLOCK TIME (SEC) =          0

               CONVERGENCE CHECKS FOR EQUILIBRIUM ITERATION     2


 AVERAGE FORCE                       5.78       TIME AVG. FORCE        5.78    
 LARGEST RESIDUAL FORCE            -0.133       AT NODE        190   DOF  2
   INSTANCE: Instance A                                                                      
 LARGEST INCREMENT OF DISP.         1.082E-03   AT NODE        114   DOF  3
   INSTANCE: Instance A                                                                      
 LARGEST CORRECTION TO DISP.       -1.710E-04   AT NODE        114   DOF  3
   INSTANCE: Instance A                                                                      
          FORCE     EQUILIBRIUM NOT ACHIEVED WITHIN TOLERANCE.

 AVERAGE MOMENT                     6.450E-02   TIME AVG. MOMENT      6.450E-02
 LARGEST RESIDUAL MOMENT            8.276E-04   AT NODE         37   DOF  5
   INSTANCE: Instance A                                                                      
 LARGEST INCREMENT OF ROTATION     -5.791E-03   AT NODE        191   DOF  6
   INSTANCE: Instance A                                                                      
 LARGEST CORRECTION TO ROTATION    -2.860E-04   AT NODE         80   DOF  4
   INSTANCE: Instance A                                                                      
          MOMENT    EQUILIBRIUM NOT ACHIEVED WITHIN TOLERANCE.

 COMPATIBILITY ERRORS:
    TYPE                NUMBER EXCEEDING TOLERANCE  MAXIMUM ERROR        IN ELEMENT
 BEAM AXIAL                          0                6.802E-09                182
   INSTANCE: Instance A                                                                      

  NUMBER OF EQUATIONS =     1256     NUMBER OF FLOATING PT. OPERATIONS =  8.20E+06

     CHECK POINT   START OF SOLVER    

     CHECK POINT  END OF SOLVER       

       ELAPSED USER TIME (SEC)      =  0.10000    
       ELAPSED SYSTEM TIME (SEC)    =   0.0000    
       ELAPSED TOTAL CPU TIME (SEC) =  0.10000    
       ELAPSED WALLCLOCK TIME (SEC) =          0

               CONVERGENCE CHECKS FOR EQUILIBRIUM ITERATION     3


 AVERAGE FORCE                       5.78       TIME AVG. FORCE        5.78    
 LARGEST RESIDUAL FORCE             1.046E-03   AT NODE         20   DOF  3
   INSTANCE: Instance A                                                                      
 LARGEST INCREMENT OF DISP.         1.067E-03   AT NODE        114   DOF  3
   INSTANCE: Instance A                                                                      
 LARGEST CORRECTION TO DISP.       -1.487E-05   AT NODE        114   DOF  3
   INSTANCE: Instance A                                                                      
 ESTIMATE OF DISP.    CORRECTION    1.173E-07
 FORCE     EQUILIB. ACCEPTED BASED ON SMALL RESIDUAL AND ESTIMATED CORRECTION

 AVERAGE MOMENT                     6.446E-02   TIME AVG. MOMENT      6.446E-02
 LARGEST RESIDUAL MOMENT           -6.408E-06   AT NODE        189   DOF  5
   INSTANCE: Instance A                                                                      
 LARGEST INCREMENT OF ROTATION     -5.793E-03   AT NODE        191   DOF  6
   INSTANCE: Instance A                                                                      
 LARGEST CORRECTION TO ROTATION    -2.622E-05   AT NODE        118   DOF  4
   INSTANCE: Instance A                                                                      
          THE MOMENT    EQUILIBRIUM EQUATIONS HAVE CONVERGED

 COMPATIBILITY ERRORS:
    TYPE                NUMBER EXCEEDING TOLERANCE  MAXIMUM ERROR        IN ELEMENT
 BEAM AXIAL                          0                5.667E-11                181
   INSTANCE: Instance A                                                                      

 ITERATION SUMMARY FOR THE INCREMENT:   3 TOTAL ITERATIONS, OF WHICH
   0 ARE SEVERE DISCONTINUITY ITERATIONS AND  3 ARE EQUILIBRIUM ITERATIONS.

 TIME INCREMENT COMPLETED  1.000E-02,  FRACTION OF STEP COMPLETED  1.000E-02
 STEP TIME COMPLETED       1.000E-02,  TOTAL TIME COMPLETED        1.000E-02


  INCREMENT     2 STARTS. ATTEMPT NUMBER  1, TIME INCREMENT  1.000E-02

  NUMBER OF EQUATIONS =     1256     NUMBER OF FLOATING PT. OPERATIONS =  8.20E+06

     CHECK POINT   START OF SOLVER    

     CHECK POINT  END OF SOLVER       

       ELAPSED USER TIME (SEC)      =   0.0000    
       ELAPSED SYSTEM TIME (SEC)    =   0.0000    
       ELAPSED TOTAL CPU TIME (SEC) =   0.0000    
       ELAPSED WALLCLOCK TIME (SEC) =          0

               CONVERGENCE CHECKS FOR EQUILIBRIUM ITERATION     1


 AVERAGE FORCE                       11.6       TIME AVG. FORCE        8.68    
 LARGEST RESIDUAL FORCE             2.147E-03   AT NODE        172   DOF  3
   INSTANCE: Instance A                                                                      
 LARGEST INCREMENT OF DISP.         1.059E-03   AT NODE        114   DOF  3
   INSTANCE: Instance A                                                                      
 LARGEST CORRECTION TO DISP.        9.375E-06   AT NODE        212   DOF  2
   INSTANCE: Instance A                                                                      
          THE FORCE     EQUILIBRIUM EQUATIONS HAVE CONVERGED

 AVERAGE MOMENT                     0.129       TIME AVG. MOMENT      9.673E-02
 LARGEST RESIDUAL MOMENT            7.723E-05   AT NODE        191   DOF  6
   INSTANCE: Instance A                                                                      
 LARGEST INCREMENT OF ROTATION      5.765E-03   AT NODE          1   DOF  6
   INSTANCE: Instance A                                                                      
 LARGEST CORRECTION TO ROTATION     4.974E-05   AT NODE        191   DOF  4
   INSTANCE: Instance A                                                                      
          THE MOMENT    EQUILIBRIUM EQUATIONS HAVE CONVERGED

 COMPATIBILITY ERRORS:
    TYPE                NUMBER EXCEEDING TOLERANCE  MAXIMUM ERROR        IN ELEMENT
 BEAM AXIAL                          0                7.706E-11                181
   INSTANCE: Instance A                                                                      
          TIME INCREMENT MAY NOW INCREASE TO    1.500E-02

 ITERATION SUMMARY FOR THE INCREMENT:   1 TOTAL ITERATIONS, OF WHICH
   0 ARE SEVERE DISCONTINUITY ITERATIONS AND  1 ARE EQUILIBRIUM ITERATIONS.

 TIME INCREMENT COMPLETED  1.000E-02,  FRACTION OF STEP COMPLETED  2.000E-02
 STEP TIME COMPLETED       2.000E-02,  TOTAL TIME COMPLETED        2.000E-02


  INCREMENT     3 STARTS. ATTEMPT NUMBER  1, TIME INCREMENT  1.500E-02

  NUMBER OF EQUATIONS =     1256     NUMBER OF FLOATING PT. OPERATIONS =  8.20E+06

     CHECK POINT   START OF SOLVER    

     CHECK POINT  END OF SOLVER       

       ELAPSED USER TIME (SEC)      =   0.0000    
       ELAPSED SYSTEM TIME (SEC)    =   0.0000    
       ELAPSED TOTAL CPU TIME (SEC) =   0.0000    
       ELAPSED WALLCLOCK TIME (SEC) =          0

               CONVERGENCE CHECKS FOR EQUILIBRIUM ITERATION     1


 AVERAGE FORCE                       20.1       TIME AVG. FORCE        12.5    
 LARGEST RESIDUAL FORCE             5.967E-03   AT NODE         20   DOF  3
   INSTANCE: Instance A                                                                      
 LARGEST INCREMENT OF DISP.         1.574E-03   AT NODE        114   DOF  3
   INSTANCE: Instance A                                                                      
 LARGEST CORRECTION TO DISP.        1.677E-05   AT NODE          1   DOF  2
   INSTANCE: Instance A                                                                      
 ESTIMATE OF DISP.    CORRECTION    1.025E-09
 FORCE     EQUILIB. ACCEPTED BASED ON SMALL RESIDUAL AND ESTIMATED CORRECTION

 AVERAGE MOMENT                     0.224       TIME AVG. MOMENT      0.139    
 LARGEST RESIDUAL MOMENT            2.497E-04   AT NODE        191   DOF  6
   INSTANCE: Instance A                                                                      
 LARGEST INCREMENT OF ROTATION     -8.571E-03   AT NODE        191   DOF  6
   INSTANCE: Instance A                                                                      
 LARGEST CORRECTION TO ROTATION     8.493E-05   AT NODE          1   DOF  4
   INSTANCE: Instance A                                                                      
          THE MOMENT    EQUILIBRIUM EQUATIONS HAVE CONVERGED

 COMPATIBILITY ERRORS:
    TYPE                NUMBER EXCEEDING TOLERANCE  MAXIMUM ERROR        IN ELEMENT
 BEAM AXIAL                          0                2.322E-10                182
   INSTANCE: Instance A                                                                      
          TIME INCREMENT MAY NOW INCREASE TO    2.250E-02

 ITERATION SUMMARY FOR THE INCREMENT:   1 TOTAL ITERATIONS, OF WHICH
   0 ARE SEVERE DISCONTINUITY ITERATIONS AND  1 ARE EQUILIBRIUM ITERATIONS.

 TIME INCREMENT COMPLETED  1.500E-02,  FRACTION OF STEP COMPLETED  3.500E-02
 STEP TIME COMPLETED       3.500E-02,  TOTAL TIME COMPLETED        3.500E-02


  INCREMENT     4 STARTS. ATTEMPT NUMBER  1, TIME INCREMENT  2.250E-02

  NUMBER OF EQUATIONS =     1256     NUMBER OF FLOATING PT. OPERATIONS =  8.20E+06

     CHECK POINT   START OF SOLVER    

     CHECK POINT  END OF SOLVER       

       ELAPSED USER TIME (SEC)      =   0.0000    
       ELAPSED SYSTEM TIME (SEC)    =   0.0000    
       ELAPSED TOTAL CPU TIME (SEC) =   0.0000    
       ELAPSED WALLCLOCK TIME (SEC) =          0

               CONVERGENCE CHECKS FOR EQUILIBRIUM ITERATION     1


 AVERAGE FORCE                       32.4       TIME AVG. FORCE        17.5    
 LARGEST RESIDUAL FORCE             2.957E-02   AT NODE         20   DOF  3
   INSTANCE: Instance A                                                                      
 LARGEST INCREMENT OF DISP.         2.330E-03   AT NODE        114   DOF  3
   INSTANCE: Instance A                                                                      
 LARGEST CORRECTION TO DISP.        3.678E-05   AT NODE        191   DOF  2
   INSTANCE: Instance A                                                                      
 ESTIMATE OF DISP.    CORRECTION    5.021E-09
 FORCE     EQUILIB. ACCEPTED BASED ON SMALL RESIDUAL AND ESTIMATED CORRECTION

 AVERAGE MOMENT                     0.366       TIME AVG. MOMENT      0.196    
 LARGEST RESIDUAL MOMENT            9.550E-04   AT NODE        191   DOF  6
   INSTANCE: Instance A                                                                      
 LARGEST INCREMENT OF ROTATION     -1.269E-02   AT NODE        191   DOF  6
   INSTANCE: Instance A                                                                      
 LARGEST CORRECTION TO ROTATION     1.841E-04   AT NODE        191   DOF  4
   INSTANCE: Instance A                                                                      
 ESTIMATE OF ROTATION CORRECTION    2.083E-07
 MOMENT    EQUILIB. ACCEPTED BASED ON SMALL RESIDUAL AND ESTIMATED CORRECTION

 COMPATIBILITY ERRORS:
    TYPE                NUMBER EXCEEDING TOLERANCE  MAXIMUM ERROR        IN ELEMENT
 BEAM AXIAL                          0                1.130E-09                181
   INSTANCE: Instance A                                                                      
          TIME INCREMENT MAY NOW INCREASE TO    3.375E-02

 ITERATION SUMMARY FOR THE INCREMENT:   1 TOTAL ITERATIONS, OF WHICH
   0 ARE SEVERE DISCONTINUITY ITERATIONS AND  1 ARE EQUILIBRIUM ITERATIONS.

 TIME INCREMENT COMPLETED  2.250E-02,  FRACTION OF STEP COMPLETED  5.750E-02
 STEP TIME COMPLETED       5.750E-02,  TOTAL TIME COMPLETED        5.750E-02


  INCREMENT     5 STARTS. ATTEMPT NUMBER  1, TIME INCREMENT  3.375E-02

  NUMBER OF EQUATIONS =     1256     NUMBER OF FLOATING PT. OPERATIONS =  8.20E+06

     CHECK POINT   START OF SOLVER    

     CHECK POINT  END OF SOLVER       

       ELAPSED USER TIME (SEC)      =   0.0000    
       ELAPSED SYSTEM TIME (SEC)    =   0.0000    
       ELAPSED TOTAL CPU TIME (SEC) =   0.0000    
       ELAPSED WALLCLOCK TIME (SEC) =          0

               CONVERGENCE CHECKS FOR EQUILIBRIUM ITERATION     1


 AVERAGE FORCE                       50.5       TIME AVG. FORCE        24.1    
 LARGEST RESIDUAL FORCE             0.140       AT NODE         20   DOF  3
   INSTANCE: Instance A                                                                      
 LARGEST INCREMENT OF DISP.         3.428E-03   AT NODE        114   DOF  3
   INSTANCE: Instance A                                                                      
 LARGEST CORRECTION TO DISP.        7.950E-05   AT NODE          1   DOF  2
   INSTANCE: Instance A                                                                      
          FORCE     EQUILIBRIUM NOT ACHIEVED WITHIN TOLERANCE.

 AVERAGE MOMENT                     0.571       TIME AVG. MOMENT      0.271    
 LARGEST RESIDUAL MOMENT           -3.638E-03   AT NODE          1   DOF  6
   INSTANCE: Instance A                                                                      
 LARGEST INCREMENT OF ROTATION      1.869E-02   AT NODE          1   DOF  6
   INSTANCE: Instance A                                                                      
 LARGEST CORRECTION TO ROTATION     3.994E-04   AT NODE        191   DOF  4
   INSTANCE: Instance A                                                                      
          MOMENT    EQUILIBRIUM NOT ACHIEVED WITHIN TOLERANCE.

 COMPATIBILITY ERRORS:
    TYPE                NUMBER EXCEEDING TOLERANCE  MAXIMUM ERROR        IN ELEMENT
 BEAM AXIAL                          0                5.377E-09                182
   INSTANCE: Instance A                                                                      

  NUMBER OF EQUATIONS =     1256     NUMBER OF FLOATING PT. OPERATIONS =  8.20E+06

     CHECK POINT   START OF SOLVER    

     CHECK POINT  END OF SOLVER       

       ELAPSED USER TIME (SEC)      =   0.0000    
       ELAPSED SYSTEM TIME (SEC)    =   0.0000    
       ELAPSED TOTAL CPU TIME (SEC) =   0.0000    
       ELAPSED WALLCLOCK TIME (SEC) =          0

               CONVERGENCE CHECKS FOR EQUILIBRIUM ITERATION     2


 AVERAGE FORCE                       50.8       TIME AVG. FORCE        24.1    
 LARGEST RESIDUAL FORCE            -3.444E-04   AT NODE        190   DOF  2
   INSTANCE: Instance A                                                                      
 LARGEST INCREMENT OF DISP.         3.436E-03   AT NODE        114   DOF  3
   INSTANCE: Instance A                                                                      
 LARGEST CORRECTION TO DISP.        8.723E-06   AT NODE        114   DOF  3
   INSTANCE: Instance A                                                                      
          THE FORCE     EQUILIBRIUM EQUATIONS HAVE CONVERGED

 AVERAGE MOMENT                     0.575       TIME AVG. MOMENT      0.272    
 LARGEST RESIDUAL MOMENT            6.589E-06   AT NODE          2   DOF  5
   INSTANCE: Instance A                                                                      
 LARGEST INCREMENT OF ROTATION     -1.868E-02   AT NODE        191   DOF  6
   INSTANCE: Instance A                                                                      
 LARGEST CORRECTION TO ROTATION     1.949E-05   AT NODE          1   DOF  4
   INSTANCE: Instance A                                                                      
          THE MOMENT    EQUILIBRIUM EQUATIONS HAVE CONVERGED

 COMPATIBILITY ERRORS:
    TYPE                NUMBER EXCEEDING TOLERANCE  MAXIMUM ERROR        IN ELEMENT
 BEAM AXIAL                          0                1.919E-11                182
   INSTANCE: Instance A                                                                      
          TIME INCREMENT MAY NOW INCREASE TO    5.000E-02

 ITERATION SUMMARY FOR THE INCREMENT:   2 TOTAL ITERATIONS, OF WHICH
   0 ARE SEVERE DISCONTINUITY ITERATIONS AND  2 ARE EQUILIBRIUM ITERATIONS.

 TIME INCREMENT COMPLETED  3.375E-02,  FRACTION OF STEP COMPLETED  9.125E-02
 STEP TIME COMPLETED       9.125E-02,  TOTAL TIME COMPLETED        9.125E-02


  INCREMENT     6 STARTS. ATTEMPT NUMBER  1, TIME INCREMENT  5.000E-02

  NUMBER OF EQUATIONS =     1256     NUMBER OF FLOATING PT. OPERATIONS =  8.20E+06

     CHECK POINT   START OF SOLVER    

     CHECK POINT  END OF SOLVER       

       ELAPSED USER TIME (SEC)      =   0.0000    
       ELAPSED SYSTEM TIME (SEC)    =   0.0000    
       ELAPSED TOTAL CPU TIME (SEC) =   0.0000    
       ELAPSED WALLCLOCK TIME (SEC) =          0

               CONVERGENCE CHECKS FOR EQUILIBRIUM ITERATION     1


 AVERAGE FORCE                       76.2       TIME AVG. FORCE        32.8    
 LARGEST RESIDUAL FORCE             0.546       AT NODE         20   DOF  3
   INSTANCE: Instance A                                                                      
 LARGEST INCREMENT OF DISP.         4.938E-03   AT NODE        114   DOF  3
   INSTANCE: Instance A                                                                      
 LARGEST CORRECTION TO DISP.        1.626E-04   AT NODE        191   DOF  2
   INSTANCE: Instance A                                                                      
          FORCE     EQUILIBRIUM NOT ACHIEVED WITHIN TOLERANCE.

 AVERAGE MOMENT                     0.867       TIME AVG. MOMENT      0.371    
 LARGEST RESIDUAL MOMENT            1.324E-02   AT NODE        191   DOF  6
   INSTANCE: Instance A                                                                      
 LARGEST INCREMENT OF ROTATION     -2.697E-02   AT NODE        191   DOF  6
   INSTANCE: Instance A                                                                      
 LARGEST CORRECTION TO ROTATION     7.902E-04   AT NODE        191   DOF  4
   INSTANCE: Instance A                                                                      
          MOMENT    EQUILIBRIUM NOT ACHIEVED WITHIN TOLERANCE.

 COMPATIBILITY ERRORS:
    TYPE                NUMBER EXCEEDING TOLERANCE  MAXIMUM ERROR        IN ELEMENT
 BEAM AXIAL                          0                2.141E-08                182
   INSTANCE: Instance A                                                                      

  NUMBER OF EQUATIONS =     1256     NUMBER OF FLOATING PT. OPERATIONS =  8.20E+06

     CHECK POINT   START OF SOLVER    

     CHECK POINT  END OF SOLVER       

       ELAPSED USER TIME (SEC)      =   0.0000    
       ELAPSED SYSTEM TIME (SEC)    =   0.0000    
       ELAPSED TOTAL CPU TIME (SEC) =   0.0000    
       ELAPSED WALLCLOCK TIME (SEC) =          0

               CONVERGENCE CHECKS FOR EQUILIBRIUM ITERATION     2


 AVERAGE FORCE                       76.7       TIME AVG. FORCE        32.9    
 LARGEST RESIDUAL FORCE            -2.960E-03   AT NODE         38   DOF  2
   INSTANCE: Instance A                                                                      
 LARGEST INCREMENT OF DISP.         4.964E-03   AT NODE        114   DOF  3
   INSTANCE: Instance A                                                                      
 LARGEST CORRECTION TO DISP.        2.567E-05   AT NODE        114   DOF  3
   INSTANCE: Instance A                                                                      
          THE FORCE     EQUILIBRIUM EQUATIONS HAVE CONVERGED

 AVERAGE MOMENT                     0.874       TIME AVG. MOMENT      0.372    
 LARGEST RESIDUAL MOMENT            3.277E-05   AT NODE          2   DOF  5
   INSTANCE: Instance A                                                                      
 LARGEST INCREMENT OF ROTATION      2.693E-02   AT NODE          1   DOF  6
   INSTANCE: Instance A                                                                      
 LARGEST CORRECTION TO ROTATION     5.778E-05   AT NODE          1   DOF  4
   INSTANCE: Instance A                                                                      
          THE MOMENT    EQUILIBRIUM EQUATIONS HAVE CONVERGED

 COMPATIBILITY ERRORS:
    TYPE                NUMBER EXCEEDING TOLERANCE  MAXIMUM ERROR        IN ELEMENT
 BEAM AXIAL                          0                1.669E-10                182
   INSTANCE: Instance A                                                                      

 ITERATION SUMMARY FOR THE INCREMENT:   2 TOTAL ITERATIONS, OF WHICH
   0 ARE SEVERE DISCONTINUITY ITERATIONS AND  2 ARE EQUILIBRIUM ITERATIONS.

 TIME INCREMENT COMPLETED  5.000E-02,  FRACTION OF STEP COMPLETED  0.141    
 STEP TIME COMPLETED       0.141    ,  TOTAL TIME COMPLETED        0.141    


  INCREMENT     7 STARTS. ATTEMPT NUMBER  1, TIME INCREMENT  5.000E-02

  NUMBER OF EQUATIONS =     1256     NUMBER OF FLOATING PT. OPERATIONS =  8.20E+06

     CHECK POINT   START OF SOLVER    

     CHECK POINT  END OF SOLVER       

       ELAPSED USER TIME (SEC)      =   0.0000    
       ELAPSED SYSTEM TIME (SEC)    =   0.0000    
       ELAPSED TOTAL CPU TIME (SEC) =   0.0000    
       ELAPSED WALLCLOCK TIME (SEC) =          0

               CONVERGENCE CHECKS FOR EQUILIBRIUM ITERATION     1


 AVERAGE FORCE                       101.       TIME AVG. FORCE        42.6    
 LARGEST RESIDUAL FORCE             0.711       AT NODE        172   DOF  3
   INSTANCE: Instance A                                                                      
 LARGEST INCREMENT OF DISP.         4.807E-03   AT NODE        114   DOF  3
   INSTANCE: Instance A                                                                      
 LARGEST CORRECTION TO DISP.        1.814E-04   AT NODE        191   DOF  2
   INSTANCE: Instance A                                                                      
          FORCE     EQUILIBRIUM NOT ACHIEVED WITHIN TOLERANCE.

 AVERAGE MOMENT                      1.15       TIME AVG. MOMENT      0.484    
 LARGEST RESIDUAL MOMENT           -1.781E-02   AT NODE          1   DOF  6
   INSTANCE: Instance A                                                                      
 LARGEST INCREMENT OF ROTATION     -2.616E-02   AT NODE        191   DOF  6
   INSTANCE: Instance A                                                                      
 LARGEST CORRECTION TO ROTATION     8.989E-04   AT NODE        191   DOF  4
   INSTANCE: Instance A                                                                      
          MOMENT    EQUILIBRIUM NOT ACHIEVED WITHIN TOLERANCE.

 COMPATIBILITY ERRORS:
    TYPE                NUMBER EXCEEDING TOLERANCE  MAXIMUM ERROR        IN ELEMENT
 BEAM AXIAL                          0                2.818E-08                181
   INSTANCE: Instance A                                                                      

  NUMBER OF EQUATIONS =     1256     NUMBER OF FLOATING PT. OPERATIONS =  8.20E+06

     CHECK POINT   START OF SOLVER    

     CHECK POINT  END OF SOLVER       

       ELAPSED USER TIME (SEC)      =   0.0000    
       ELAPSED SYSTEM TIME (SEC)    =   0.0000    
       ELAPSED TOTAL CPU TIME (SEC) =   0.0000    
       ELAPSED WALLCLOCK TIME (SEC) =          0

               CONVERGENCE CHECKS FOR EQUILIBRIUM ITERATION     2


 AVERAGE FORCE                       101.       TIME AVG. FORCE        42.7    
 LARGEST RESIDUAL FORCE            -4.391E-03   AT NODE         38   DOF  2
   INSTANCE: Instance A                                                                      
 LARGEST INCREMENT OF DISP.         4.838E-03   AT NODE        114   DOF  3
   INSTANCE: Instance A                                                                      
 LARGEST CORRECTION TO DISP.        3.127E-05   AT NODE        114   DOF  3
   INSTANCE: Instance A                                                                      
          THE FORCE     EQUILIBRIUM EQUATIONS HAVE CONVERGED

 AVERAGE MOMENT                      1.16       TIME AVG. MOMENT      0.485    
 LARGEST RESIDUAL MOMENT            5.539E-05   AT NODE          2   DOF  5
   INSTANCE: Instance A                                                                      
 LARGEST INCREMENT OF ROTATION     -2.610E-02   AT NODE        191   DOF  6
   INSTANCE: Instance A                                                                      
 LARGEST CORRECTION TO ROTATION     7.219E-05   AT NODE          1   DOF  4
   INSTANCE: Instance A                                                                      
          THE MOMENT    EQUILIBRIUM EQUATIONS HAVE CONVERGED

 COMPATIBILITY ERRORS:
    TYPE                NUMBER EXCEEDING TOLERANCE  MAXIMUM ERROR        IN ELEMENT
 BEAM AXIAL                          0                2.445E-10                182
   INSTANCE: Instance A                                                                      

 ITERATION SUMMARY FOR THE INCREMENT:   2 TOTAL ITERATIONS, OF WHICH
   0 ARE SEVERE DISCONTINUITY ITERATIONS AND  2 ARE EQUILIBRIUM ITERATIONS.

 TIME INCREMENT COMPLETED  5.000E-02,  FRACTION OF STEP COMPLETED  0.191    
 STEP TIME COMPLETED       0.191    ,  TOTAL TIME COMPLETED        0.191    


  INCREMENT     8 STARTS. ATTEMPT NUMBER  1, TIME INCREMENT  5.000E-02

  NUMBER OF EQUATIONS =     1256     NUMBER OF FLOATING PT. OPERATIONS =  8.20E+06

     CHECK POINT   START OF SOLVER    

     CHECK POINT  END OF SOLVER       

       ELAPSED USER TIME (SEC)      =   0.0000    
       ELAPSED SYSTEM TIME (SEC)    =   0.0000    
       ELAPSED TOTAL CPU TIME (SEC) =   0.0000    
       ELAPSED WALLCLOCK TIME (SEC) =          0

               CONVERGENCE CHECKS FOR EQUILIBRIUM ITERATION     1


 AVERAGE FORCE                       125.       TIME AVG. FORCE        52.9    
 LARGEST RESIDUAL FORCE             0.618       AT NODE        172   DOF  3
   INSTANCE: Instance A                                                                      
 LARGEST INCREMENT OF DISP.         4.701E-03   AT NODE        114   DOF  3
   INSTANCE: Instance A                                                                      
 LARGEST CORRECTION TO DISP.        1.673E-04   AT NODE        191   DOF  2
   INSTANCE: Instance A                                                                      
          FORCE     EQUILIBRIUM NOT ACHIEVED WITHIN TOLERANCE.

 AVERAGE MOMENT                      1.43       TIME AVG. MOMENT      0.604    
 LARGEST RESIDUAL MOMENT            1.792E-02   AT NODE        191   DOF  6
   INSTANCE: Instance A                                                                      
 LARGEST INCREMENT OF ROTATION      2.537E-02   AT NODE          1   DOF  6
   INSTANCE: Instance A                                                                      
 LARGEST CORRECTION TO ROTATION     8.353E-04   AT NODE        191   DOF  4
   INSTANCE: Instance A                                                                      
          MOMENT    EQUILIBRIUM NOT ACHIEVED WITHIN TOLERANCE.

 COMPATIBILITY ERRORS:
    TYPE                NUMBER EXCEEDING TOLERANCE  MAXIMUM ERROR        IN ELEMENT
 BEAM AXIAL                          0                2.494E-08                182
   INSTANCE: Instance A                                                                      

  NUMBER OF EQUATIONS =     1256     NUMBER OF FLOATING PT. OPERATIONS =  8.20E+06

     CHECK POINT   START OF SOLVER    

     CHECK POINT  END OF SOLVER       

       ELAPSED USER TIME (SEC)      =   0.0000    
       ELAPSED SYSTEM TIME (SEC)    =   0.0000    
       ELAPSED TOTAL CPU TIME (SEC) =   0.0000    
       ELAPSED WALLCLOCK TIME (SEC) =          0

               CONVERGENCE CHECKS FOR EQUILIBRIUM ITERATION     2


 AVERAGE FORCE                       125.       TIME AVG. FORCE        53.0    
 LARGEST RESIDUAL FORCE            -3.684E-03   AT NODE        190   DOF  2
   INSTANCE: Instance A                                                                      
 LARGEST INCREMENT OF DISP.         4.730E-03   AT NODE        114   DOF  3
   INSTANCE: Instance A                                                                      
 LARGEST CORRECTION TO DISP.        2.863E-05   AT NODE        114   DOF  3
   INSTANCE: Instance A                                                                      
          THE FORCE     EQUILIBRIUM EQUATIONS HAVE CONVERGED

 AVERAGE MOMENT                      1.45       TIME AVG. MOMENT      0.605    
 LARGEST RESIDUAL MOMENT           -6.706E-05   AT NODE        192   DOF  5
   INSTANCE: Instance A                                                                      
 LARGEST INCREMENT OF ROTATION      2.531E-02   AT NODE          1   DOF  6
   INSTANCE: Instance A                                                                      
 LARGEST CORRECTION TO ROTATION     6.964E-05   AT NODE          1   DOF  4
   INSTANCE: Instance A                                                                      
          THE MOMENT    EQUILIBRIUM EQUATIONS HAVE CONVERGED

 COMPATIBILITY ERRORS:
    TYPE                NUMBER EXCEEDING TOLERANCE  MAXIMUM ERROR        IN ELEMENT
 BEAM AXIAL                          0                2.000E-10                182
   INSTANCE: Instance A                                                                      

 ITERATION SUMMARY FOR THE INCREMENT:   2 TOTAL ITERATIONS, OF WHICH
   0 ARE SEVERE DISCONTINUITY ITERATIONS AND  2 ARE EQUILIBRIUM ITERATIONS.

 TIME INCREMENT COMPLETED  5.000E-02,  FRACTION OF STEP COMPLETED  0.241    
 STEP TIME COMPLETED       0.241    ,  TOTAL TIME COMPLETED        0.241    


  INCREMENT     9 STARTS. ATTEMPT NUMBER  1, TIME INCREMENT  5.000E-02

  NUMBER OF EQUATIONS =     1256     NUMBER OF FLOATING PT. OPERATIONS =  8.20E+06

     CHECK POINT   START OF SOLVER    

     CHECK POINT  END OF SOLVER       

       ELAPSED USER TIME (SEC)      =   0.0000    
       ELAPSED SYSTEM TIME (SEC)    =   0.0000    
       ELAPSED TOTAL CPU TIME (SEC) =   0.0000    
       ELAPSED WALLCLOCK TIME (SEC) =          0

               CONVERGENCE CHECKS FOR EQUILIBRIUM ITERATION     1


 AVERAGE FORCE                       147.       TIME AVG. FORCE        63.5    
 LARGEST RESIDUAL FORCE             0.544       AT NODE        172   DOF  3
   INSTANCE: Instance A                                                                      
 LARGEST INCREMENT OF DISP.         4.609E-03   AT NODE        114   DOF  3
   INSTANCE: Instance A                                                                      
 LARGEST CORRECTION TO DISP.        1.547E-04   AT NODE        210   DOF  2
   INSTANCE: Instance A                                                                      
          FORCE     EQUILIBRIUM NOT ACHIEVED WITHIN TOLERANCE.

 AVERAGE MOMENT                      1.71       TIME AVG. MOMENT      0.727    
 LARGEST RESIDUAL MOMENT           -1.790E-02   AT NODE          1   DOF  6
   INSTANCE: Instance A                                                                      
 LARGEST INCREMENT OF ROTATION     -2.462E-02   AT NODE        191   DOF  6
   INSTANCE: Instance A                                                                      
 LARGEST CORRECTION TO ROTATION     7.794E-04   AT NODE        191   DOF  4
   INSTANCE: Instance A                                                                      
          MOMENT    EQUILIBRIUM NOT ACHIEVED WITHIN TOLERANCE.

 COMPATIBILITY ERRORS:
    TYPE                NUMBER EXCEEDING TOLERANCE  MAXIMUM ERROR        IN ELEMENT
 BEAM AXIAL                          0                2.222E-08                181
   INSTANCE: Instance A                                                                      

  NUMBER OF EQUATIONS =     1256     NUMBER OF FLOATING PT. OPERATIONS =  8.20E+06

     CHECK POINT   START OF SOLVER    

     CHECK POINT  END OF SOLVER       

       ELAPSED USER TIME (SEC)      =   0.0000    
       ELAPSED SYSTEM TIME (SEC)    =   0.0000    
       ELAPSED TOTAL CPU TIME (SEC) =   0.0000    
       ELAPSED WALLCLOCK TIME (SEC) =          0

               CONVERGENCE CHECKS FOR EQUILIBRIUM ITERATION     2


 AVERAGE FORCE                       148.       TIME AVG. FORCE        63.6    
 LARGEST RESIDUAL FORCE            -3.140E-03   AT NODE         38   DOF  2
   INSTANCE: Instance A                                                                      
 LARGEST INCREMENT OF DISP.         4.635E-03   AT NODE        114   DOF  3
   INSTANCE: Instance A                                                                      
 LARGEST CORRECTION TO DISP.        2.643E-05   AT NODE        114   DOF  3
   INSTANCE: Instance A                                                                      
          THE FORCE     EQUILIBRIUM EQUATIONS HAVE CONVERGED

 AVERAGE MOMENT                      1.72       TIME AVG. MOMENT      0.729    
 LARGEST RESIDUAL MOMENT           -7.786E-05   AT NODE        192   DOF  5
   INSTANCE: Instance A                                                                      
 LARGEST INCREMENT OF ROTATION     -2.456E-02   AT NODE        191   DOF  6
   INSTANCE: Instance A                                                                      
 LARGEST CORRECTION TO ROTATION     6.724E-05   AT NODE          1   DOF  4
   INSTANCE: Instance A                                                                      
          THE MOMENT    EQUILIBRIUM EQUATIONS HAVE CONVERGED

 COMPATIBILITY ERRORS:
    TYPE                NUMBER EXCEEDING TOLERANCE  MAXIMUM ERROR        IN ELEMENT
 BEAM AXIAL                          0                1.664E-10                182
   INSTANCE: Instance A                                                                      

 ITERATION SUMMARY FOR THE INCREMENT:   2 TOTAL ITERATIONS, OF WHICH
   0 ARE SEVERE DISCONTINUITY ITERATIONS AND  2 ARE EQUILIBRIUM ITERATIONS.

 TIME INCREMENT COMPLETED  5.000E-02,  FRACTION OF STEP COMPLETED  0.291    
 STEP TIME COMPLETED       0.291    ,  TOTAL TIME COMPLETED        0.291    


  INCREMENT    10 STARTS. ATTEMPT NUMBER  1, TIME INCREMENT  5.000E-02

  NUMBER OF EQUATIONS =     1256     NUMBER OF FLOATING PT. OPERATIONS =  8.20E+06

     CHECK POINT   START OF SOLVER    

     CHECK POINT  END OF SOLVER       

       ELAPSED USER TIME (SEC)      =   0.0000    
       ELAPSED SYSTEM TIME (SEC)    =   0.0000    
       ELAPSED TOTAL CPU TIME (SEC) =   0.0000    
       ELAPSED WALLCLOCK TIME (SEC) =          0

               CONVERGENCE CHECKS FOR EQUILIBRIUM ITERATION     1


 AVERAGE FORCE                       170.       TIME AVG. FORCE        74.2    
 LARGEST RESIDUAL FORCE             0.479       AT NODE         20   DOF  3
   INSTANCE: Instance A                                                                      
 LARGEST INCREMENT OF DISP.         4.528E-03   AT NODE        114   DOF  3
   INSTANCE: Instance A                                                                      
 LARGEST CORRECTION TO DISP.        1.433E-04   AT NODE          1   DOF  2
   INSTANCE: Instance A                                                                      
          FORCE     EQUILIBRIUM NOT ACHIEVED WITHIN TOLERANCE.

 AVERAGE MOMENT                      1.97       TIME AVG. MOMENT      0.853    
 LARGEST RESIDUAL MOMENT            1.780E-02   AT NODE        191   DOF  6
   INSTANCE: Instance A                                                                      
 LARGEST INCREMENT OF ROTATION      2.392E-02   AT NODE          1   DOF  6
   INSTANCE: Instance A                                                                      
 LARGEST CORRECTION TO ROTATION     7.300E-04   AT NODE          1   DOF  4
   INSTANCE: Instance A                                                                      
          MOMENT    EQUILIBRIUM NOT ACHIEVED WITHIN TOLERANCE.

 COMPATIBILITY ERRORS:
    TYPE                NUMBER EXCEEDING TOLERANCE  MAXIMUM ERROR        IN ELEMENT
 BEAM AXIAL                          0                1.983E-08                182
   INSTANCE: Instance A                                                                      

  NUMBER OF EQUATIONS =     1256     NUMBER OF FLOATING PT. OPERATIONS =  8.20E+06

     CHECK POINT   START OF SOLVER    

     CHECK POINT  END OF SOLVER       

       ELAPSED USER TIME (SEC)      =   0.0000    
       ELAPSED SYSTEM TIME (SEC)    =   0.0000    
       ELAPSED TOTAL CPU TIME (SEC) =   0.0000    
       ELAPSED WALLCLOCK TIME (SEC) =          0

               CONVERGENCE CHECKS FOR EQUILIBRIUM ITERATION     2


 AVERAGE FORCE                       171.       TIME AVG. FORCE        74.3    
 LARGEST RESIDUAL FORCE            -2.692E-03   AT NODE         38   DOF  2
   INSTANCE: Instance A                                                                      
 LARGEST INCREMENT OF DISP.         4.553E-03   AT NODE        114   DOF  3
   INSTANCE: Instance A                                                                      
 LARGEST CORRECTION TO DISP.        2.447E-05   AT NODE        114   DOF  3
   INSTANCE: Instance A                                                                      
          THE FORCE     EQUILIBRIUM EQUATIONS HAVE CONVERGED

 AVERAGE MOMENT                      1.98       TIME AVG. MOMENT      0.854    
 LARGEST RESIDUAL MOMENT            8.759E-05   AT NODE          2   DOF  5
   INSTANCE: Instance A                                                                      
 LARGEST INCREMENT OF ROTATION      2.386E-02   AT NODE          1   DOF  6
   INSTANCE: Instance A                                                                      
 LARGEST CORRECTION TO ROTATION    -6.631E-05   AT NODE          1   DOF  6
   INSTANCE: Instance A                                                                      
          THE MOMENT    EQUILIBRIUM EQUATIONS HAVE CONVERGED

 COMPATIBILITY ERRORS:
    TYPE                NUMBER EXCEEDING TOLERANCE  MAXIMUM ERROR        IN ELEMENT
 BEAM AXIAL                          0                1.395E-10                182
   INSTANCE: Instance A                                                                      

 ITERATION SUMMARY FOR THE INCREMENT:   2 TOTAL ITERATIONS, OF WHICH
   0 ARE SEVERE DISCONTINUITY ITERATIONS AND  2 ARE EQUILIBRIUM ITERATIONS.

 TIME INCREMENT COMPLETED  5.000E-02,  FRACTION OF STEP COMPLETED  0.341    
 STEP TIME COMPLETED       0.341    ,  TOTAL TIME COMPLETED        0.341    


  INCREMENT    11 STARTS. ATTEMPT NUMBER  1, TIME INCREMENT  5.000E-02

  NUMBER OF EQUATIONS =     1256     NUMBER OF FLOATING PT. OPERATIONS =  8.20E+06

     CHECK POINT   START OF SOLVER    

     CHECK POINT  END OF SOLVER       

       ELAPSED USER TIME (SEC)      =   0.0000    
       ELAPSED SYSTEM TIME (SEC)    =   0.0000    
       ELAPSED TOTAL CPU TIME (SEC) =   0.0000    
       ELAPSED WALLCLOCK TIME (SEC) =          0

               CONVERGENCE CHECKS FOR EQUILIBRIUM ITERATION     1


 AVERAGE FORCE                       191.       TIME AVG. FORCE        84.9    
 LARGEST RESIDUAL FORCE             0.423       AT NODE        172   DOF  3
   INSTANCE: Instance A                                                                      
 LARGEST INCREMENT OF DISP.         4.457E-03   AT NODE        114   DOF  3
   INSTANCE: Instance A                                                                      
 LARGEST CORRECTION TO DISP.        1.330E-04   AT NODE        212   DOF  2
   INSTANCE: Instance A                                                                      
 ESTIMATE OF DISP.    CORRECTION    6.148E-08
 FORCE     EQUILIB. ACCEPTED BASED ON SMALL RESIDUAL AND ESTIMATED CORRECTION

 AVERAGE MOMENT                      2.23       TIME AVG. MOMENT      0.980    
 LARGEST RESIDUAL MOMENT           -1.763E-02   AT NODE          1   DOF  6
   INSTANCE: Instance A                                                                      
 LARGEST INCREMENT OF ROTATION      2.326E-02   AT NODE          1   DOF  6
   INSTANCE: Instance A                                                                      
 LARGEST CORRECTION TO ROTATION     6.853E-04   AT NODE        191   DOF  4
   INSTANCE: Instance A                                                                      
          MOMENT    EQUILIBRIUM NOT ACHIEVED WITHIN TOLERANCE.

 COMPATIBILITY ERRORS:
    TYPE                NUMBER EXCEEDING TOLERANCE  MAXIMUM ERROR        IN ELEMENT
 BEAM AXIAL                          0                1.770E-08                181
   INSTANCE: Instance A                                                                      

  NUMBER OF EQUATIONS =     1256     NUMBER OF FLOATING PT. OPERATIONS =  8.20E+06

     CHECK POINT   START OF SOLVER    

     CHECK POINT  END OF SOLVER       

       ELAPSED USER TIME (SEC)      =   0.0000    
       ELAPSED SYSTEM TIME (SEC)    =   0.0000    
       ELAPSED TOTAL CPU TIME (SEC) =   0.0000    
       ELAPSED WALLCLOCK TIME (SEC) =          0

               CONVERGENCE CHECKS FOR EQUILIBRIUM ITERATION     2


 AVERAGE FORCE                       192.       TIME AVG. FORCE        85.0    
 LARGEST RESIDUAL FORCE            -2.901E-03   AT NODE        172   DOF  3
   INSTANCE: Instance A                                                                      
 LARGEST INCREMENT OF DISP.         4.479E-03   AT NODE        114   DOF  3
   INSTANCE: Instance A                                                                      
 LARGEST CORRECTION TO DISP.        2.271E-05   AT NODE        114   DOF  3
   INSTANCE: Instance A                                                                      
          THE FORCE     EQUILIBRIUM EQUATIONS HAVE CONVERGED

 AVERAGE MOMENT                      2.25       TIME AVG. MOMENT      0.981    
 LARGEST RESIDUAL MOMENT           -9.617E-05   AT NODE        192   DOF  5
   INSTANCE: Instance A                                                                      
 LARGEST INCREMENT OF ROTATION      2.319E-02   AT NODE          1   DOF  6
   INSTANCE: Instance A                                                                      
 LARGEST CORRECTION TO ROTATION    -6.838E-05   AT NODE          1   DOF  6
   INSTANCE: Instance A                                                                      
          THE MOMENT    EQUILIBRIUM EQUATIONS HAVE CONVERGED

 COMPATIBILITY ERRORS:
    TYPE                NUMBER EXCEEDING TOLERANCE  MAXIMUM ERROR        IN ELEMENT
 BEAM AXIAL                          0                1.175E-10                182
   INSTANCE: Instance A                                                                      

 ITERATION SUMMARY FOR THE INCREMENT:   2 TOTAL ITERATIONS, OF WHICH
   0 ARE SEVERE DISCONTINUITY ITERATIONS AND  2 ARE EQUILIBRIUM ITERATIONS.

 TIME INCREMENT COMPLETED  5.000E-02,  FRACTION OF STEP COMPLETED  0.391    
 STEP TIME COMPLETED       0.391    ,  TOTAL TIME COMPLETED        0.391    


  INCREMENT    12 STARTS. ATTEMPT NUMBER  1, TIME INCREMENT  5.000E-02

  NUMBER OF EQUATIONS =     1256     NUMBER OF FLOATING PT. OPERATIONS =  8.20E+06

     CHECK POINT   START OF SOLVER    

     CHECK POINT  END OF SOLVER       

       ELAPSED USER TIME (SEC)      =   0.0000    
       ELAPSED SYSTEM TIME (SEC)    =   0.0000    
       ELAPSED TOTAL CPU TIME (SEC) =   0.0000    
       ELAPSED WALLCLOCK TIME (SEC) =          0

               CONVERGENCE CHECKS FOR EQUILIBRIUM ITERATION     1


 AVERAGE FORCE                       212.       TIME AVG. FORCE        95.6    
 LARGEST RESIDUAL FORCE             0.374       AT NODE        172   DOF  3
   INSTANCE: Instance A                                                                      
 LARGEST INCREMENT OF DISP.         4.392E-03   AT NODE        114   DOF  3
   INSTANCE: Instance A                                                                      
 LARGEST CORRECTION TO DISP.        1.236E-04   AT NODE          1   DOF  2
   INSTANCE: Instance A                                                                      
 ESTIMATE OF DISP.    CORRECTION    5.327E-08
 FORCE     EQUILIB. ACCEPTED BASED ON SMALL RESIDUAL AND ESTIMATED CORRECTION

 AVERAGE MOMENT                      2.49       TIME AVG. MOMENT       1.11    
 LARGEST RESIDUAL MOMENT           -1.740E-02   AT NODE          1   DOF  6
   INSTANCE: Instance A                                                                      
 LARGEST INCREMENT OF ROTATION     -2.264E-02   AT NODE        191   DOF  6
   INSTANCE: Instance A                                                                      
 LARGEST CORRECTION TO ROTATION     6.444E-04   AT NODE          1   DOF  4
   INSTANCE: Instance A                                                                      
          MOMENT    EQUILIBRIUM NOT ACHIEVED WITHIN TOLERANCE.

 COMPATIBILITY ERRORS:
    TYPE                NUMBER EXCEEDING TOLERANCE  MAXIMUM ERROR        IN ELEMENT
 BEAM AXIAL                          0                1.581E-08                182
   INSTANCE: Instance A                                                                      

  NUMBER OF EQUATIONS =     1256     NUMBER OF FLOATING PT. OPERATIONS =  8.20E+06

     CHECK POINT   START OF SOLVER    

     CHECK POINT  END OF SOLVER       

       ELAPSED USER TIME (SEC)      =   0.0000    
       ELAPSED SYSTEM TIME (SEC)    =   0.0000    
       ELAPSED TOTAL CPU TIME (SEC) =   0.0000    
       ELAPSED WALLCLOCK TIME (SEC) =          0

               CONVERGENCE CHECKS FOR EQUILIBRIUM ITERATION     2


 AVERAGE FORCE                       213.       TIME AVG. FORCE        95.7    
 LARGEST RESIDUAL FORCE            -3.933E-03   AT NODE         20   DOF  3
   INSTANCE: Instance A                                                                      
 LARGEST INCREMENT OF DISP.         4.413E-03   AT NODE        114   DOF  3
   INSTANCE: Instance A                                                                      
 LARGEST CORRECTION TO DISP.        2.112E-05   AT NODE        114   DOF  3
   INSTANCE: Instance A                                                                      
          THE FORCE     EQUILIBRIUM EQUATIONS HAVE CONVERGED

 AVERAGE MOMENT                      2.50       TIME AVG. MOMENT       1.11    
 LARGEST RESIDUAL MOMENT           -1.036E-04   AT NODE        192   DOF  5
   INSTANCE: Instance A                                                                      
 LARGEST INCREMENT OF ROTATION     -2.257E-02   AT NODE        191   DOF  6
   INSTANCE: Instance A                                                                      
 LARGEST CORRECTION TO ROTATION     6.989E-05   AT NODE        191   DOF  6
   INSTANCE: Instance A                                                                      
          THE MOMENT    EQUILIBRIUM EQUATIONS HAVE CONVERGED

 COMPATIBILITY ERRORS:
    TYPE                NUMBER EXCEEDING TOLERANCE  MAXIMUM ERROR        IN ELEMENT
 BEAM AXIAL                          0                9.948E-11                182
   INSTANCE: Instance A                                                                      

 ITERATION SUMMARY FOR THE INCREMENT:   2 TOTAL ITERATIONS, OF WHICH
   0 ARE SEVERE DISCONTINUITY ITERATIONS AND  2 ARE EQUILIBRIUM ITERATIONS.

 TIME INCREMENT COMPLETED  5.000E-02,  FRACTION OF STEP COMPLETED  0.441    
 STEP TIME COMPLETED       0.441    ,  TOTAL TIME COMPLETED        0.441    


  INCREMENT    13 STARTS. ATTEMPT NUMBER  1, TIME INCREMENT  5.000E-02

  NUMBER OF EQUATIONS =     1256     NUMBER OF FLOATING PT. OPERATIONS =  8.20E+06

     CHECK POINT   START OF SOLVER    

     CHECK POINT  END OF SOLVER       

       ELAPSED USER TIME (SEC)      =   0.0000    
       ELAPSED SYSTEM TIME (SEC)    =   0.0000    
       ELAPSED TOTAL CPU TIME (SEC) =   0.0000    
       ELAPSED WALLCLOCK TIME (SEC) =          0

               CONVERGENCE CHECKS FOR EQUILIBRIUM ITERATION     1


 AVERAGE FORCE                       233.       TIME AVG. FORCE        106.    
 LARGEST RESIDUAL FORCE             0.331       AT NODE         20   DOF  3
   INSTANCE: Instance A                                                                      
 LARGEST INCREMENT OF DISP.         4.334E-03   AT NODE        114   DOF  3
   INSTANCE: Instance A                                                                      
 LARGEST CORRECTION TO DISP.        1.150E-04   AT NODE        212   DOF  2
   INSTANCE: Instance A                                                                      
 ESTIMATE OF DISP.    CORRECTION    4.616E-08
 FORCE     EQUILIB. ACCEPTED BASED ON SMALL RESIDUAL AND ESTIMATED CORRECTION

 AVERAGE MOMENT                      2.74       TIME AVG. MOMENT       1.23    
 LARGEST RESIDUAL MOMENT           -1.714E-02   AT NODE          1   DOF  6
   INSTANCE: Instance A                                                                      
 LARGEST INCREMENT OF ROTATION      2.204E-02   AT NODE          1   DOF  6
   INSTANCE: Instance A                                                                      
 LARGEST CORRECTION TO ROTATION     6.068E-04   AT NODE          1   DOF  4
   INSTANCE: Instance A                                                                      
          MOMENT    EQUILIBRIUM NOT ACHIEVED WITHIN TOLERANCE.

 COMPATIBILITY ERRORS:
    TYPE                NUMBER EXCEEDING TOLERANCE  MAXIMUM ERROR        IN ELEMENT
 BEAM AXIAL                          0                1.413E-08                181
   INSTANCE: Instance A                                                                      

  NUMBER OF EQUATIONS =     1256     NUMBER OF FLOATING PT. OPERATIONS =  8.20E+06

     CHECK POINT   START OF SOLVER    

     CHECK POINT  END OF SOLVER       

       ELAPSED USER TIME (SEC)      =   0.0000    
       ELAPSED SYSTEM TIME (SEC)    =   0.0000    
       ELAPSED TOTAL CPU TIME (SEC) =   0.0000    
       ELAPSED WALLCLOCK TIME (SEC) =          0

               CONVERGENCE CHECKS FOR EQUILIBRIUM ITERATION     2


 AVERAGE FORCE                       233.       TIME AVG. FORCE        106.    
 LARGEST RESIDUAL FORCE            -4.864E-03   AT NODE        172   DOF  3
   INSTANCE: Instance A                                                                      
 LARGEST INCREMENT OF DISP.         4.354E-03   AT NODE        114   DOF  3
   INSTANCE: Instance A                                                                      
 LARGEST CORRECTION TO DISP.        1.969E-05   AT NODE        114   DOF  3
   INSTANCE: Instance A                                                                      
          THE FORCE     EQUILIBRIUM EQUATIONS HAVE CONVERGED

 AVERAGE MOMENT                      2.74       TIME AVG. MOMENT       1.23    
 LARGEST RESIDUAL MOMENT            1.099E-04   AT NODE          2   DOF  5
   INSTANCE: Instance A                                                                      
 LARGEST INCREMENT OF ROTATION      2.197E-02   AT NODE          1   DOF  6
   INSTANCE: Instance A                                                                      
 LARGEST CORRECTION TO ROTATION    -7.091E-05   AT NODE          1   DOF  6
   INSTANCE: Instance A                                                                      
          THE MOMENT    EQUILIBRIUM EQUATIONS HAVE CONVERGED

 COMPATIBILITY ERRORS:
    TYPE                NUMBER EXCEEDING TOLERANCE  MAXIMUM ERROR        IN ELEMENT
 BEAM AXIAL                          0                8.471E-11                181
   INSTANCE: Instance A                                                                      

 ITERATION SUMMARY FOR THE INCREMENT:   2 TOTAL ITERATIONS, OF WHICH
   0 ARE SEVERE DISCONTINUITY ITERATIONS AND  2 ARE EQUILIBRIUM ITERATIONS.

 TIME INCREMENT COMPLETED  5.000E-02,  FRACTION OF STEP COMPLETED  0.491    
 STEP TIME COMPLETED       0.491    ,  TOTAL TIME COMPLETED        0.491    


  INCREMENT    14 STARTS. ATTEMPT NUMBER  1, TIME INCREMENT  5.000E-02

  NUMBER OF EQUATIONS =     1256     NUMBER OF FLOATING PT. OPERATIONS =  8.20E+06

     CHECK POINT   START OF SOLVER    

     CHECK POINT  END OF SOLVER       

       ELAPSED USER TIME (SEC)      =   0.0000    
       ELAPSED SYSTEM TIME (SEC)    =   0.0000    
       ELAPSED TOTAL CPU TIME (SEC) =   0.0000    
       ELAPSED WALLCLOCK TIME (SEC) =          1

               CONVERGENCE CHECKS FOR EQUILIBRIUM ITERATION     1


 AVERAGE FORCE                       253.       TIME AVG. FORCE        117.    
 LARGEST RESIDUAL FORCE             0.293       AT NODE         20   DOF  3
   INSTANCE: Instance A                                                                      
 LARGEST INCREMENT OF DISP.         4.281E-03   AT NODE        114   DOF  3
   INSTANCE: Instance A                                                                      
 LARGEST CORRECTION TO DISP.        1.071E-04   AT NODE        191   DOF  2
   INSTANCE: Instance A                                                                      
 ESTIMATE OF DISP.    CORRECTION    4.001E-08
 FORCE     EQUILIB. ACCEPTED BASED ON SMALL RESIDUAL AND ESTIMATED CORRECTION

 AVERAGE MOMENT                      2.98       TIME AVG. MOMENT       1.36    
 LARGEST RESIDUAL MOMENT            1.684E-02   AT NODE        191   DOF  6
   INSTANCE: Instance A                                                                      
 LARGEST INCREMENT OF ROTATION      2.148E-02   AT NODE          1   DOF  6
   INSTANCE: Instance A                                                                      
 LARGEST CORRECTION TO ROTATION     5.720E-04   AT NODE        191   DOF  4
   INSTANCE: Instance A                                                                      
          MOMENT    EQUILIBRIUM NOT ACHIEVED WITHIN TOLERANCE.

 COMPATIBILITY ERRORS:
    TYPE                NUMBER EXCEEDING TOLERANCE  MAXIMUM ERROR        IN ELEMENT
 BEAM AXIAL                          0                1.264E-08                182
   INSTANCE: Instance A                                                                      

  NUMBER OF EQUATIONS =     1256     NUMBER OF FLOATING PT. OPERATIONS =  8.20E+06

     CHECK POINT   START OF SOLVER    

     CHECK POINT  END OF SOLVER       

       ELAPSED USER TIME (SEC)      =   0.0000    
       ELAPSED SYSTEM TIME (SEC)    =   0.0000    
       ELAPSED TOTAL CPU TIME (SEC) =   0.0000    
       ELAPSED WALLCLOCK TIME (SEC) =          0

               CONVERGENCE CHECKS FOR EQUILIBRIUM ITERATION     2


 AVERAGE FORCE                       253.       TIME AVG. FORCE        117.    
 LARGEST RESIDUAL FORCE            -5.702E-03   AT NODE         20   DOF  3
   INSTANCE: Instance A                                                                      
 LARGEST INCREMENT OF DISP.         4.299E-03   AT NODE        114   DOF  3
   INSTANCE: Instance A                                                                      
 LARGEST CORRECTION TO DISP.        1.841E-05   AT NODE        114   DOF  3
   INSTANCE: Instance A                                                                      
          THE FORCE     EQUILIBRIUM EQUATIONS HAVE CONVERGED

 AVERAGE MOMENT                      2.99       TIME AVG. MOMENT       1.36    
 LARGEST RESIDUAL MOMENT           -1.171E-04   AT NODE        192   DOF  4
   INSTANCE: Instance A                                                                      
 LARGEST INCREMENT OF ROTATION      2.141E-02   AT NODE          1   DOF  6
   INSTANCE: Instance A                                                                      
 LARGEST CORRECTION TO ROTATION     7.154E-05   AT NODE        191   DOF  6
   INSTANCE: Instance A                                                                      
          THE MOMENT    EQUILIBRIUM EQUATIONS HAVE CONVERGED

 COMPATIBILITY ERRORS:
    TYPE                NUMBER EXCEEDING TOLERANCE  MAXIMUM ERROR        IN ELEMENT
 BEAM AXIAL                          0                7.258E-11                181
   INSTANCE: Instance A                                                                      

 ITERATION SUMMARY FOR THE INCREMENT:   2 TOTAL ITERATIONS, OF WHICH
   0 ARE SEVERE DISCONTINUITY ITERATIONS AND  2 ARE EQUILIBRIUM ITERATIONS.

 TIME INCREMENT COMPLETED  5.000E-02,  FRACTION OF STEP COMPLETED  0.541    
 STEP TIME COMPLETED       0.541    ,  TOTAL TIME COMPLETED        0.541    


  INCREMENT    15 STARTS. ATTEMPT NUMBER  1, TIME INCREMENT  5.000E-02

  NUMBER OF EQUATIONS =     1256     NUMBER OF FLOATING PT. OPERATIONS =  8.20E+06

     CHECK POINT   START OF SOLVER    

     CHECK POINT  END OF SOLVER       

       ELAPSED USER TIME (SEC)      =   0.0000    
       ELAPSED SYSTEM TIME (SEC)    =   0.0000    
       ELAPSED TOTAL CPU TIME (SEC) =   0.0000    
       ELAPSED WALLCLOCK TIME (SEC) =          0

               CONVERGENCE CHECKS FOR EQUILIBRIUM ITERATION     1


 AVERAGE FORCE                       273.       TIME AVG. FORCE        127.    
 LARGEST RESIDUAL FORCE             0.259       AT NODE         20   DOF  3
   INSTANCE: Instance A                                                                      
 LARGEST INCREMENT OF DISP.         4.232E-03   AT NODE        114   DOF  3
   INSTANCE: Instance A                                                                      
 LARGEST CORRECTION TO DISP.        9.996E-05   AT NODE          1   DOF  2
   INSTANCE: Instance A                                                                      
 ESTIMATE OF DISP.    CORRECTION    3.468E-08
 FORCE     EQUILIB. ACCEPTED BASED ON SMALL RESIDUAL AND ESTIMATED CORRECTION

 AVERAGE MOMENT                      3.21       TIME AVG. MOMENT       1.48    
 LARGEST RESIDUAL MOMENT           -1.652E-02   AT NODE          1   DOF  6
   INSTANCE: Instance A                                                                      
 LARGEST INCREMENT OF ROTATION      2.095E-02   AT NODE          1   DOF  6
   INSTANCE: Instance A                                                                      
 LARGEST CORRECTION TO ROTATION     5.398E-04   AT NODE          1   DOF  4
   INSTANCE: Instance A                                                                      
          MOMENT    EQUILIBRIUM NOT ACHIEVED WITHIN TOLERANCE.

 COMPATIBILITY ERRORS:
    TYPE                NUMBER EXCEEDING TOLERANCE  MAXIMUM ERROR        IN ELEMENT
 BEAM AXIAL                          0                1.131E-08                182
   INSTANCE: Instance A                                                                      

  NUMBER OF EQUATIONS =     1256     NUMBER OF FLOATING PT. OPERATIONS =  8.20E+06

     CHECK POINT   START OF SOLVER    

     CHECK POINT  END OF SOLVER       

       ELAPSED USER TIME (SEC)      =   0.0000    
       ELAPSED SYSTEM TIME (SEC)    =   0.0000    
       ELAPSED TOTAL CPU TIME (SEC) =   0.0000    
       ELAPSED WALLCLOCK TIME (SEC) =          0

               CONVERGENCE CHECKS FOR EQUILIBRIUM ITERATION     2


 AVERAGE FORCE                       273.       TIME AVG. FORCE        127.    
 LARGEST RESIDUAL FORCE            -6.455E-03   AT NODE         20   DOF  3
   INSTANCE: Instance A                                                                      
 LARGEST INCREMENT OF DISP.         4.249E-03   AT NODE        114   DOF  3
   INSTANCE: Instance A                                                                      
 LARGEST CORRECTION TO DISP.        1.726E-05   AT NODE        114   DOF  3
   INSTANCE: Instance A                                                                      
          THE FORCE     EQUILIBRIUM EQUATIONS HAVE CONVERGED

 AVERAGE MOMENT                      3.22       TIME AVG. MOMENT       1.48    
 LARGEST RESIDUAL MOMENT           -1.304E-04   AT NODE        192   DOF  4
   INSTANCE: Instance A                                                                      
 LARGEST INCREMENT OF ROTATION     -2.087E-02   AT NODE        191   DOF  6
   INSTANCE: Instance A                                                                      
 LARGEST CORRECTION TO ROTATION    -7.183E-05   AT NODE          1   DOF  6
   INSTANCE: Instance A                                                                      
          THE MOMENT    EQUILIBRIUM EQUATIONS HAVE CONVERGED

 COMPATIBILITY ERRORS:
    TYPE                NUMBER EXCEEDING TOLERANCE  MAXIMUM ERROR        IN ELEMENT
 BEAM AXIAL                          0                6.255E-11                181
   INSTANCE: Instance A                                                                      

 ITERATION SUMMARY FOR THE INCREMENT:   2 TOTAL ITERATIONS, OF WHICH
   0 ARE SEVERE DISCONTINUITY ITERATIONS AND  2 ARE EQUILIBRIUM ITERATIONS.

 TIME INCREMENT COMPLETED  5.000E-02,  FRACTION OF STEP COMPLETED  0.591    
 STEP TIME COMPLETED       0.591    ,  TOTAL TIME COMPLETED        0.591    


  INCREMENT    16 STARTS. ATTEMPT NUMBER  1, TIME INCREMENT  5.000E-02

  NUMBER OF EQUATIONS =     1256     NUMBER OF FLOATING PT. OPERATIONS =  8.20E+06

     CHECK POINT   START OF SOLVER    

     CHECK POINT  END OF SOLVER       

       ELAPSED USER TIME (SEC)      =   0.0000    
       ELAPSED SYSTEM TIME (SEC)    =   0.0000    
       ELAPSED TOTAL CPU TIME (SEC) =   0.0000    
       ELAPSED WALLCLOCK TIME (SEC) =          0

               CONVERGENCE CHECKS FOR EQUILIBRIUM ITERATION     1


 AVERAGE FORCE                       292.       TIME AVG. FORCE        137.    
 LARGEST RESIDUAL FORCE             0.229       AT NODE        172   DOF  3
   INSTANCE: Instance A                                                                      
 LARGEST INCREMENT OF DISP.         4.186E-03   AT NODE        114   DOF  3
   INSTANCE: Instance A                                                                      
 LARGEST CORRECTION TO DISP.        9.340E-05   AT NODE        212   DOF  2
   INSTANCE: Instance A                                                                      
 ESTIMATE OF DISP.    CORRECTION    3.005E-08
 FORCE     EQUILIB. ACCEPTED BASED ON SMALL RESIDUAL AND ESTIMATED CORRECTION

 AVERAGE MOMENT                      3.44       TIME AVG. MOMENT       1.61    
 LARGEST RESIDUAL MOMENT           -1.619E-02   AT NODE          1   DOF  6
   INSTANCE: Instance A                                                                      
 LARGEST INCREMENT OF ROTATION      2.044E-02   AT NODE          1   DOF  6
   INSTANCE: Instance A                                                                      
 LARGEST CORRECTION TO ROTATION     5.098E-04   AT NODE        191   DOF  4
   INSTANCE: Instance A                                                                      
          MOMENT    EQUILIBRIUM NOT ACHIEVED WITHIN TOLERANCE.

 COMPATIBILITY ERRORS:
    TYPE                NUMBER EXCEEDING TOLERANCE  MAXIMUM ERROR        IN ELEMENT
 BEAM AXIAL                          0                1.013E-08                181
   INSTANCE: Instance A                                                                      

  NUMBER OF EQUATIONS =     1256     NUMBER OF FLOATING PT. OPERATIONS =  8.20E+06

     CHECK POINT   START OF SOLVER    

     CHECK POINT  END OF SOLVER       

       ELAPSED USER TIME (SEC)      =   0.0000    
       ELAPSED SYSTEM TIME (SEC)    =   0.0000    
       ELAPSED TOTAL CPU TIME (SEC) =   0.0000    
       ELAPSED WALLCLOCK TIME (SEC) =          0

               CONVERGENCE CHECKS FOR EQUILIBRIUM ITERATION     2


 AVERAGE FORCE                       292.       TIME AVG. FORCE        137.    
 LARGEST RESIDUAL FORCE            -7.130E-03   AT NODE        172   DOF  3
   INSTANCE: Instance A                                                                      
 LARGEST INCREMENT OF DISP.         4.202E-03   AT NODE        114   DOF  3
   INSTANCE: Instance A                                                                      
 LARGEST CORRECTION TO DISP.        1.622E-05   AT NODE        114   DOF  3
   INSTANCE: Instance A                                                                      
          THE FORCE     EQUILIBRIUM EQUATIONS HAVE CONVERGED

 AVERAGE MOMENT                      3.45       TIME AVG. MOMENT       1.61    
 LARGEST RESIDUAL MOMENT           -1.431E-04   AT NODE          2   DOF  4
   INSTANCE: Instance A                                                                      
 LARGEST INCREMENT OF ROTATION      2.037E-02   AT NODE          1   DOF  6
   INSTANCE: Instance A                                                                      
 LARGEST CORRECTION TO ROTATION    -7.185E-05   AT NODE          1   DOF  6
   INSTANCE: Instance A                                                                      
          THE MOMENT    EQUILIBRIUM EQUATIONS HAVE CONVERGED

 COMPATIBILITY ERRORS:
    TYPE                NUMBER EXCEEDING TOLERANCE  MAXIMUM ERROR        IN ELEMENT
 BEAM AXIAL                          0                5.424E-11                182
   INSTANCE: Instance A                                                                      

 ITERATION SUMMARY FOR THE INCREMENT:   2 TOTAL ITERATIONS, OF WHICH
   0 ARE SEVERE DISCONTINUITY ITERATIONS AND  2 ARE EQUILIBRIUM ITERATIONS.

 TIME INCREMENT COMPLETED  5.000E-02,  FRACTION OF STEP COMPLETED  0.641    
 STEP TIME COMPLETED       0.641    ,  TOTAL TIME COMPLETED        0.641    


  INCREMENT    17 STARTS. ATTEMPT NUMBER  1, TIME INCREMENT  5.000E-02

  NUMBER OF EQUATIONS =     1256     NUMBER OF FLOATING PT. OPERATIONS =  8.20E+06

     CHECK POINT   START OF SOLVER    

     CHECK POINT  END OF SOLVER       

       ELAPSED USER TIME (SEC)      =   0.0000    
       ELAPSED SYSTEM TIME (SEC)    =   0.0000    
       ELAPSED TOTAL CPU TIME (SEC) =   0.0000    
       ELAPSED WALLCLOCK TIME (SEC) =          0

               CONVERGENCE CHECKS FOR EQUILIBRIUM ITERATION     1


 AVERAGE FORCE                       310.       TIME AVG. FORCE        148.    
 LARGEST RESIDUAL FORCE             0.203       AT NODE        172   DOF  3
   INSTANCE: Instance A                                                                      
 LARGEST INCREMENT OF DISP.         4.142E-03   AT NODE        114   DOF  3
   INSTANCE: Instance A                                                                      
 LARGEST CORRECTION TO DISP.        8.737E-05   AT NODE        210   DOF  2
   INSTANCE: Instance A                                                                      
 ESTIMATE OF DISP.    CORRECTION    2.603E-08
 FORCE     EQUILIB. ACCEPTED BASED ON SMALL RESIDUAL AND ESTIMATED CORRECTION

 AVERAGE MOMENT                      3.67       TIME AVG. MOMENT       1.73    
 LARGEST RESIDUAL MOMENT           -1.584E-02   AT NODE          1   DOF  6
   INSTANCE: Instance A                                                                      
 LARGEST INCREMENT OF ROTATION     -1.995E-02   AT NODE        191   DOF  6
   INSTANCE: Instance A                                                                      
 LARGEST CORRECTION TO ROTATION     4.820E-04   AT NODE          1   DOF  4
   INSTANCE: Instance A                                                                      
          MOMENT    EQUILIBRIUM NOT ACHIEVED WITHIN TOLERANCE.

 COMPATIBILITY ERRORS:
    TYPE                NUMBER EXCEEDING TOLERANCE  MAXIMUM ERROR        IN ELEMENT
 BEAM AXIAL                          0                9.086E-09                181
   INSTANCE: Instance A                                                                      

  NUMBER OF EQUATIONS =     1256     NUMBER OF FLOATING PT. OPERATIONS =  8.20E+06

     CHECK POINT   START OF SOLVER    

     CHECK POINT  END OF SOLVER       

       ELAPSED USER TIME (SEC)      =   0.0000    
       ELAPSED SYSTEM TIME (SEC)    =   0.0000    
       ELAPSED TOTAL CPU TIME (SEC) =   0.0000    
       ELAPSED WALLCLOCK TIME (SEC) =          0

               CONVERGENCE CHECKS FOR EQUILIBRIUM ITERATION     2


 AVERAGE FORCE                       310.       TIME AVG. FORCE        148.    
 LARGEST RESIDUAL FORCE            -7.734E-03   AT NODE        172   DOF  3
   INSTANCE: Instance A                                                                      
 LARGEST INCREMENT OF DISP.         4.158E-03   AT NODE        114   DOF  3
   INSTANCE: Instance A                                                                      
 LARGEST CORRECTION TO DISP.        1.529E-05   AT NODE        114   DOF  3
   INSTANCE: Instance A                                                                      
          THE FORCE     EQUILIBRIUM EQUATIONS HAVE CONVERGED

 AVERAGE MOMENT                      3.68       TIME AVG. MOMENT       1.73    
 LARGEST RESIDUAL MOMENT           -1.552E-04   AT NODE          2   DOF  4
   INSTANCE: Instance A                                                                      
 LARGEST INCREMENT OF ROTATION     -1.988E-02   AT NODE        191   DOF  6
   INSTANCE: Instance A                                                                      
 LARGEST CORRECTION TO ROTATION     7.164E-05   AT NODE        191   DOF  6
   INSTANCE: Instance A                                                                      
          THE MOMENT    EQUILIBRIUM EQUATIONS HAVE CONVERGED

 COMPATIBILITY ERRORS:
    TYPE                NUMBER EXCEEDING TOLERANCE  MAXIMUM ERROR        IN ELEMENT
 BEAM AXIAL                          0                4.731E-11                181
   INSTANCE: Instance A                                                                      

 ITERATION SUMMARY FOR THE INCREMENT:   2 TOTAL ITERATIONS, OF WHICH
   0 ARE SEVERE DISCONTINUITY ITERATIONS AND  2 ARE EQUILIBRIUM ITERATIONS.

 TIME INCREMENT COMPLETED  5.000E-02,  FRACTION OF STEP COMPLETED  0.691    
 STEP TIME COMPLETED       0.691    ,  TOTAL TIME COMPLETED        0.691    


  INCREMENT    18 STARTS. ATTEMPT NUMBER  1, TIME INCREMENT  5.000E-02

  NUMBER OF EQUATIONS =     1256     NUMBER OF FLOATING PT. OPERATIONS =  8.20E+06

     CHECK POINT   START OF SOLVER    

     CHECK POINT  END OF SOLVER       

       ELAPSED USER TIME (SEC)      =   0.0000    
       ELAPSED SYSTEM TIME (SEC)    =   0.0000    
       ELAPSED TOTAL CPU TIME (SEC) =   0.0000    
       ELAPSED WALLCLOCK TIME (SEC) =          0

               CONVERGENCE CHECKS FOR EQUILIBRIUM ITERATION     1


 AVERAGE FORCE                       328.       TIME AVG. FORCE        158.    
 LARGEST RESIDUAL FORCE             0.181       AT NODE        210   DOF  3
   INSTANCE: Instance A                                                                      
 LARGEST INCREMENT OF DISP.         4.101E-03   AT NODE        114   DOF  3
   INSTANCE: Instance A                                                                      
 LARGEST CORRECTION TO DISP.        8.184E-05   AT NODE        191   DOF  2
   INSTANCE: Instance A                                                                      
 ESTIMATE OF DISP.    CORRECTION    2.281E-08
 FORCE     EQUILIB. ACCEPTED BASED ON SMALL RESIDUAL AND ESTIMATED CORRECTION

 AVERAGE MOMENT                      3.89       TIME AVG. MOMENT       1.85    
 LARGEST RESIDUAL MOMENT            1.549E-02   AT NODE        191   DOF  6
   INSTANCE: Instance A                                                                      
 LARGEST INCREMENT OF ROTATION     -1.949E-02   AT NODE        191   DOF  6
   INSTANCE: Instance A                                                                      
[...]

 ITERATION SUMMARY FOR THE INCREMENT:   1 TOTAL ITERATIONS, OF WHICH
   0 ARE SEVERE DISCONTINUITY ITERATIONS AND  1 ARE EQUILIBRIUM ITERATIONS.

 TIME INCREMENT COMPLETED  5.000E-02,  FRACTION OF STEP COMPLETED  0.791    
 STEP TIME COMPLETED       0.791    ,  TOTAL TIME COMPLETED         15.8    


  INCREMENT    20 STARTS. ATTEMPT NUMBER  1, TIME INCREMENT  5.000E-02

  NUMBER OF EQUATIONS =     1256     NUMBER OF FLOATING PT. OPERATIONS =  8.20E+06

     CHECK POINT   START OF SOLVER    

     CHECK POINT  END OF SOLVER       

       ELAPSED USER TIME (SEC)      =   0.0000    
       ELAPSED SYSTEM TIME (SEC)    =   0.0000    
       ELAPSED TOTAL CPU TIME (SEC) =   0.0000    
       ELAPSED WALLCLOCK TIME (SEC) =          0

               CONVERGENCE CHECKS FOR EQUILIBRIUM ITERATION     1


 AVERAGE FORCE                       463.       TIME AVG. FORCE        436.    
 LARGEST RESIDUAL FORCE            -0.550       AT NODE        190   DOF  2
   INSTANCE: Instance A                                                                      
 LARGEST INCREMENT OF DISP.        -5.286E-03   AT NODE        209   DOF  3
   INSTANCE: Instance A                                                                      
 LARGEST CORRECTION TO DISP.       -3.188E-04   AT NODE        209   DOF  3
   INSTANCE: Instance A                                                                      
 ESTIMATE OF DISP.    CORRECTION    1.899E-07
 FORCE     EQUILIB. ACCEPTED BASED ON SMALL RESIDUAL AND ESTIMATED CORRECTION

 AVERAGE MOMENT                      3.94       TIME AVG. MOMENT       3.38    
 LARGEST RESIDUAL MOMENT            1.609E-02   AT NODE         20   DOF  6
   INSTANCE: Instance A                                                                      
 LARGEST INCREMENT OF ROTATION      2.011E-02   AT NODE          1   DOF  4
   INSTANCE: Instance A                                                                      
 LARGEST CORRECTION TO ROTATION     9.211E-04   AT NODE        197   DOF  5
   INSTANCE: Instance A                                                                      
 ESTIMATE OF ROTATION CORRECTION    3.523E-06
 MOMENT    EQUILIB. ACCEPTED BASED ON SMALL RESIDUAL AND ESTIMATED CORRECTION

 COMPATIBILITY ERRORS:
    TYPE                NUMBER EXCEEDING TOLERANCE  MAXIMUM ERROR        IN ELEMENT
 BEAM AXIAL                          0                1.095E-08                181
   INSTANCE: Instance A                                                                      

 ITERATION SUMMARY FOR THE INCREMENT:   1 TOTAL ITERATIONS, OF WHICH
   0 ARE SEVERE DISCONTINUITY ITERATIONS AND  1 ARE EQUILIBRIUM ITERATIONS.

 TIME INCREMENT COMPLETED  5.000E-02,  FRACTION OF STEP COMPLETED  0.841    
 STEP TIME COMPLETED       0.841    ,  TOTAL TIME COMPLETED         15.8    


  INCREMENT    21 STARTS. ATTEMPT NUMBER  1, TIME INCREMENT  5.000E-02

  NUMBER OF EQUATIONS =     1256     NUMBER OF FLOATING PT. OPERATIONS =  8.20E+06

     CHECK POINT   START OF SOLVER    

     CHECK POINT  END OF SOLVER       

       ELAPSED USER TIME (SEC)      =  0.10000    
       ELAPSED SYSTEM TIME (SEC)    =   0.0000    
       ELAPSED TOTAL CPU TIME (SEC) =  0.10000    
       ELAPSED WALLCLOCK TIME (SEC) =          0

               CONVERGENCE CHECKS FOR EQUILIBRIUM ITERATION     1


 AVERAGE FORCE                       478.       TIME AVG. FORCE        438.    
 LARGEST RESIDUAL FORCE            -0.706       AT NODE        211   DOF  1
   INSTANCE: Instance A                                                                      
 LARGEST INCREMENT OF DISP.        -5.638E-03   AT NODE        209   DOF  3
   INSTANCE: Instance A                                                                      
 LARGEST CORRECTION TO DISP.       -3.529E-04   AT NODE        209   DOF  3
   INSTANCE: Instance A                                                                      
 ESTIMATE OF DISP.    CORRECTION    2.619E-07
 FORCE     EQUILIB. ACCEPTED BASED ON SMALL RESIDUAL AND ESTIMATED CORRECTION

 AVERAGE MOMENT                      4.04       TIME AVG. MOMENT       3.41    
 LARGEST RESIDUAL MOMENT            1.826E-02   AT NODE         20   DOF  6
   INSTANCE: Instance A                                                                      
 LARGEST INCREMENT OF ROTATION      2.055E-02   AT NODE          1   DOF  4
   INSTANCE: Instance A                                                                      
 LARGEST CORRECTION TO ROTATION     1.057E-03   AT NODE        197   DOF  5
   INSTANCE: Instance A                                                                      
          MOMENT    EQUILIBRIUM NOT ACHIEVED WITHIN TOLERANCE.

 COMPATIBILITY ERRORS:
    TYPE                NUMBER EXCEEDING TOLERANCE  MAXIMUM ERROR        IN ELEMENT
 BEAM AXIAL                          0                1.446E-08                181
   INSTANCE: Instance A                                                                      

  NUMBER OF EQUATIONS =     1256     NUMBER OF FLOATING PT. OPERATIONS =  8.20E+06

     CHECK POINT   START OF SOLVER    

     CHECK POINT  END OF SOLVER       

       ELAPSED USER TIME (SEC)      =   0.0000    
       ELAPSED SYSTEM TIME (SEC)    =   0.0000    
       ELAPSED TOTAL CPU TIME (SEC) =   0.0000    
       ELAPSED WALLCLOCK TIME (SEC) =          0

               CONVERGENCE CHECKS FOR EQUILIBRIUM ITERATION     2


 AVERAGE FORCE                       479.       TIME AVG. FORCE        438.    
 LARGEST RESIDUAL FORCE            -6.928E-03   AT NODE          2   DOF  1
   INSTANCE: Instance A                                                                      
 LARGEST INCREMENT OF DISP.        -5.640E-03   AT NODE        209   DOF  3
   INSTANCE: Instance A                                                                      
 LARGEST CORRECTION TO DISP.       -1.157E-05   AT NODE          1   DOF  3
   INSTANCE: Instance A                                                                      
          THE FORCE     EQUILIBRIUM EQUATIONS HAVE CONVERGED

 AVERAGE MOMENT                      4.06       TIME AVG. MOMENT       3.42    
 LARGEST RESIDUAL MOMENT            1.654E-04   AT NODE         21   DOF  6
   INSTANCE: Instance A                                                                      
 LARGEST INCREMENT OF ROTATION      2.049E-02   AT NODE          1   DOF  4
   INSTANCE: Instance A                                                                      
 LARGEST CORRECTION TO ROTATION     7.184E-05   AT NODE          1   DOF  6
   INSTANCE: Instance A                                                                      
          THE MOMENT    EQUILIBRIUM EQUATIONS HAVE CONVERGED

 COMPATIBILITY ERRORS:
    TYPE                NUMBER EXCEEDING TOLERANCE  MAXIMUM ERROR        IN ELEMENT
 BEAM AXIAL                          0                6.637E-10                181
   INSTANCE: Instance A                                                                      

 ITERATION SUMMARY FOR THE INCREMENT:   2 TOTAL ITERATIONS, OF WHICH
   0 ARE SEVERE DISCONTINUITY ITERATIONS AND  2 ARE EQUILIBRIUM ITERATIONS.

 TIME INCREMENT COMPLETED  5.000E-02,  FRACTION OF STEP COMPLETED  0.891    
 STEP TIME COMPLETED       0.891    ,  TOTAL TIME COMPLETED         15.9    


  INCREMENT    22 STARTS. ATTEMPT NUMBER  1, TIME INCREMENT  5.000E-02

  NUMBER OF EQUATIONS =     1256     NUMBER OF FLOATING PT. OPERATIONS =  8.20E+06

     CHECK POINT   START OF SOLVER    

     CHECK POINT  END OF SOLVER       

       ELAPSED USER TIME (SEC)      =   0.0000    
       ELAPSED SYSTEM TIME (SEC)    =   0.0000    
       ELAPSED TOTAL CPU TIME (SEC) =   0.0000    
       ELAPSED WALLCLOCK TIME (SEC) =          0

               CONVERGENCE CHECKS FOR EQUILIBRIUM ITERATION     1


 AVERAGE FORCE                       498.       TIME AVG. FORCE        441.    
 LARGEST RESIDUAL FORCE             -1.07       AT NODE        211   DOF  1
   INSTANCE: Instance A                                                                      
 LARGEST INCREMENT OF DISP.        -6.031E-03   AT NODE        209   DOF  3
   INSTANCE: Instance A                                                                      
 LARGEST CORRECTION TO DISP.       -3.915E-04   AT NODE        209   DOF  3
   INSTANCE: Instance A                                                                      
 ESTIMATE OF DISP.    CORRECTION    4.328E-07
 FORCE     EQUILIB. ACCEPTED BASED ON SMALL RESIDUAL AND ESTIMATED CORRECTION

 AVERAGE MOMENT                      4.16       TIME AVG. MOMENT       3.45    
 LARGEST RESIDUAL MOMENT            1.936E-02   AT NODE         20   DOF  6
   INSTANCE: Instance A                                                                      
 LARGEST INCREMENT OF ROTATION      2.099E-02   AT NODE          1   DOF  4
   INSTANCE: Instance A                                                                      
 LARGEST CORRECTION TO ROTATION     1.293E-03   AT NODE        197   DOF  5
   INSTANCE: Instance A                                                                      
          MOMENT    EQUILIBRIUM NOT ACHIEVED WITHIN TOLERANCE.

 COMPATIBILITY ERRORS:
    TYPE                NUMBER EXCEEDING TOLERANCE  MAXIMUM ERROR        IN ELEMENT
 BEAM AXIAL                          0                4.196E-08                181
   INSTANCE: Instance A                                                                      

  NUMBER OF EQUATIONS =     1256     NUMBER OF FLOATING PT. OPERATIONS =  8.20E+06

     CHECK POINT   START OF SOLVER    

     CHECK POINT  END OF SOLVER       

       ELAPSED USER TIME (SEC)      =   0.0000    
       ELAPSED SYSTEM TIME (SEC)    =   0.0000    
       ELAPSED TOTAL CPU TIME (SEC) =   0.0000    
       ELAPSED WALLCLOCK TIME (SEC) =          0

               CONVERGENCE CHECKS FOR EQUILIBRIUM ITERATION     2


 AVERAGE FORCE                       499.       TIME AVG. FORCE        441.    
 LARGEST RESIDUAL FORCE             1.292E-02   AT NODE         77   DOF  3
   INSTANCE: Instance A                                                                      
 LARGEST INCREMENT OF DISP.        -6.014E-03   AT NODE        209   DOF  3
   INSTANCE: Instance A                                                                      
 LARGEST CORRECTION TO DISP.       -2.493E-05   AT NODE          1   DOF  3
   INSTANCE: Instance A                                                                      
          THE FORCE     EQUILIBRIUM EQUATIONS HAVE CONVERGED

 AVERAGE MOMENT                      4.17       TIME AVG. MOMENT       3.45    
 LARGEST RESIDUAL MOMENT           -3.311E-04   AT NODE         98   DOF  6
   INSTANCE: Instance A                                                                      
 LARGEST INCREMENT OF ROTATION      2.094E-02   AT NODE          1   DOF  4
   INSTANCE: Instance A                                                                      
 LARGEST CORRECTION TO ROTATION    -1.042E-04   AT NODE          1   DOF  5
   INSTANCE: Instance A                                                                      
          THE MOMENT    EQUILIBRIUM EQUATIONS HAVE CONVERGED

 COMPATIBILITY ERRORS:
    TYPE                NUMBER EXCEEDING TOLERANCE  MAXIMUM ERROR        IN ELEMENT
 BEAM AXIAL                          0                2.669E-09                181
   INSTANCE: Instance A                                                                      

 ITERATION SUMMARY FOR THE INCREMENT:   2 TOTAL ITERATIONS, OF WHICH
   0 ARE SEVERE DISCONTINUITY ITERATIONS AND  2 ARE EQUILIBRIUM ITERATIONS.

 TIME INCREMENT COMPLETED  5.000E-02,  FRACTION OF STEP COMPLETED  0.941    
 STEP TIME COMPLETED       0.941    ,  TOTAL TIME COMPLETED         15.9    


  INCREMENT    23 STARTS. ATTEMPT NUMBER  1, TIME INCREMENT  5.000E-02

  NUMBER OF EQUATIONS =     1256     NUMBER OF FLOATING PT. OPERATIONS =  8.20E+06

     CHECK POINT   START OF SOLVER    

     CHECK POINT  END OF SOLVER       

       ELAPSED USER TIME (SEC)      =   0.0000    
       ELAPSED SYSTEM TIME (SEC)    =   0.0000    
       ELAPSED TOTAL CPU TIME (SEC) =   0.0000    
       ELAPSED WALLCLOCK TIME (SEC) =          0

               CONVERGENCE CHECKS FOR EQUILIBRIUM ITERATION     1


 AVERAGE FORCE                       522.       TIME AVG. FORCE        444.    
 LARGEST RESIDUAL FORCE             -1.43       AT NODE        211   DOF  1
   INSTANCE: Instance A                                                                      
 LARGEST INCREMENT OF DISP.        -6.464E-03   AT NODE        209   DOF  3
   INSTANCE: Instance A                                                                      
 LARGEST CORRECTION TO DISP.       -4.502E-04   AT NODE        209   DOF  3
   INSTANCE: Instance A                                                                      
 ESTIMATE OF DISP.    CORRECTION    6.577E-07
 FORCE     EQUILIB. ACCEPTED BASED ON SMALL RESIDUAL AND ESTIMATED CORRECTION

 AVERAGE MOMENT                      4.29       TIME AVG. MOMENT       3.49    
 LARGEST RESIDUAL MOMENT            2.266E-02   AT NODE         20   DOF  6
   INSTANCE: Instance A                                                                      
 LARGEST INCREMENT OF ROTATION      2.129E-02   AT NODE          1   DOF  4
   INSTANCE: Instance A                                                                      
 LARGEST CORRECTION TO ROTATION     1.462E-03   AT NODE        197   DOF  5
   INSTANCE: Instance A                                                                      
          MOMENT    EQUILIBRIUM NOT ACHIEVED WITHIN TOLERANCE.

 COMPATIBILITY ERRORS:
    TYPE                NUMBER EXCEEDING TOLERANCE  MAXIMUM ERROR        IN ELEMENT
 BEAM AXIAL                          0                5.971E-08                181
   INSTANCE: Instance A                                                                      

  NUMBER OF EQUATIONS =     1256     NUMBER OF FLOATING PT. OPERATIONS =  8.20E+06

     CHECK POINT   START OF SOLVER    

     CHECK POINT  END OF SOLVER       

       ELAPSED USER TIME (SEC)      =   0.0000    
       ELAPSED SYSTEM TIME (SEC)    =   0.0000    
       ELAPSED TOTAL CPU TIME (SEC) =   0.0000    
       ELAPSED WALLCLOCK TIME (SEC) =          0

               CONVERGENCE CHECKS FOR EQUILIBRIUM ITERATION     2


 AVERAGE FORCE                       523.       TIME AVG. FORCE        445.    
 LARGEST RESIDUAL FORCE             3.023E-02   AT NODE         58   DOF  3
   INSTANCE: Instance A                                                                      
 LARGEST INCREMENT OF DISP.        -6.419E-03   AT NODE        209   DOF  3
   INSTANCE: Instance A                                                                      
 LARGEST CORRECTION TO DISP.        4.498E-05   AT NODE        209   DOF  3
   INSTANCE: Instance A                                                                      
          THE FORCE     EQUILIBRIUM EQUATIONS HAVE CONVERGED

 AVERAGE MOMENT                      4.31       TIME AVG. MOMENT       3.49    
 LARGEST RESIDUAL MOMENT            3.449E-04   AT NODE        100   DOF  6
   INSTANCE: Instance A                                                                      
 LARGEST INCREMENT OF ROTATION      2.126E-02   AT NODE          1   DOF  4
   INSTANCE: Instance A                                                                      
 LARGEST CORRECTION TO ROTATION    -1.344E-04   AT NODE          1   DOF  5
   INSTANCE: Instance A                                                                      
          THE MOMENT    EQUILIBRIUM EQUATIONS HAVE CONVERGED

 COMPATIBILITY ERRORS:
    TYPE                NUMBER EXCEEDING TOLERANCE  MAXIMUM ERROR        IN ELEMENT
 BEAM AXIAL                          0                5.966E-09                181
   INSTANCE: Instance A                                                                      

 ITERATION SUMMARY FOR THE INCREMENT:   2 TOTAL ITERATIONS, OF WHICH
   0 ARE SEVERE DISCONTINUITY ITERATIONS AND  2 ARE EQUILIBRIUM ITERATIONS.

 TIME INCREMENT COMPLETED  5.000E-02,  FRACTION OF STEP COMPLETED  0.991    
 STEP TIME COMPLETED       0.991    ,  TOTAL TIME COMPLETED         16.0    


  INCREMENT    24 STARTS. ATTEMPT NUMBER  1, TIME INCREMENT  8.750E-03

  NUMBER OF EQUATIONS =     1256     NUMBER OF FLOATING PT. OPERATIONS =  8.20E+06

     CHECK POINT   START OF SOLVER    

     CHECK POINT  END OF SOLVER       

       ELAPSED USER TIME (SEC)      =   0.0000    
       ELAPSED SYSTEM TIME (SEC)    =   0.0000    
       ELAPSED TOTAL CPU TIME (SEC) =   0.0000    
       ELAPSED WALLCLOCK TIME (SEC) =          0

               CONVERGENCE CHECKS FOR EQUILIBRIUM ITERATION     1


 AVERAGE FORCE                       529.       TIME AVG. FORCE        448.    
 LARGEST RESIDUAL FORCE            -3.310E-02   AT NODE          2   DOF  3
   INSTANCE: Instance A                                                                      
 LARGEST INCREMENT OF DISP.        -1.167E-03   AT NODE        209   DOF  3
   INSTANCE: Instance A                                                                      
 LARGEST CORRECTION TO DISP.       -4.315E-05   AT NODE        209   DOF  3
   INSTANCE: Instance A                                                                      
 ESTIMATE OF DISP.    CORRECTION    1.428E-08
 FORCE     EQUILIB. ACCEPTED BASED ON SMALL RESIDUAL AND ESTIMATED CORRECTION

 AVERAGE MOMENT                      4.33       TIME AVG. MOMENT       3.52    
 LARGEST RESIDUAL MOMENT            2.332E-03   AT NODE         20   DOF  6
   INSTANCE: Instance A                                                                      
 LARGEST INCREMENT OF ROTATION      3.733E-03   AT NODE          1   DOF  4
   INSTANCE: Instance A                                                                      
 LARGEST CORRECTION TO ROTATION     4.190E-04   AT NODE          2   DOF  6
   INSTANCE: Instance A                                                                      
 ESTIMATE OF ROTATION CORRECTION    2.238E-06
 MOMENT    EQUILIB. ACCEPTED BASED ON SMALL RESIDUAL AND ESTIMATED CORRECTION

 COMPATIBILITY ERRORS:
    TYPE                NUMBER EXCEEDING TOLERANCE  MAXIMUM ERROR        IN ELEMENT
 BEAM AXIAL                          0                2.187E-09                181
   INSTANCE: Instance A                                                                      

 ITERATION SUMMARY FOR THE INCREMENT:   1 TOTAL ITERATIONS, OF WHICH
   0 ARE SEVERE DISCONTINUITY ITERATIONS AND  1 ARE EQUILIBRIUM ITERATIONS.

 TIME INCREMENT COMPLETED  8.750E-03,  FRACTION OF STEP COMPLETED   1.00    
 STEP TIME COMPLETED        1.00    ,  TOTAL TIME COMPLETED         16.0    


          THE ANALYSIS HAS BEEN COMPLETED



     ANALYSIS SUMMARY:
     TOTAL OF        384  INCREMENTS
                       0  CUTBACKS IN AUTOMATIC INCREMENTATION
                     510  ITERATIONS INCLUDING CONTACT ITERATIONS IF PRESENT
                     510  PASSES THROUGH THE EQUATION SOLVER OF WHICH 
                     510  INVOLVE MATRIX DECOMPOSITION, INCLUDING
                       0  DECOMPOSITION(S) OF THE MASS MATRIX
                       1  REORDERING OF EQUATIONS TO MINIMIZE WAVEFRONT
                       0  ADDITIONAL RESIDUAL EVALUATIONS FOR LINE SEARCHES
                       0  ADDITIONAL OPERATOR EVALUATIONS FOR LINE SEARCHES
                       8  WARNING MESSAGES DURING USER INPUT PROCESSING
                       0  WARNING MESSAGES DURING ANALYSIS
                       0  ANALYSIS WARNINGS ARE NUMERICAL PROBLEM MESSAGES
                       0  ANALYSIS WARNINGS ARE NEGATIVE EIGENVALUE MESSAGES
                       0  ERROR MESSAGES



     JOB TIME SUMMARY
       USER TIME (SEC)      =   30.200    
       SYSTEM TIME (SEC)    =   5.0000    
       TOTAL CPU TIME (SEC) =   35.200    
       WALLCLOCK TIME (SEC) =         41
