*Heading
** Job name: job Model name: model
** Generated by: Abaqus/CAE 6.12-1
*Preprint, echo=NO, model=NO, history=NO, contact=NO
**
** PARTS
**
*Part, name="Part A"
*Node
      1, -0.300000012,           0.,           0.
      2, -0.300000012, 0.0060109999, 0.0555789992
      3, -0.300000012, 0.0237690005,  0.108584002
      4, -0.300000012, 0.0524340011,  0.156575993
      5, -0.300000012, 0.0907069966,  0.197320998
      6, -0.300000012,  0.136795998,  0.228954002
      7, -0.300000012,  0.188585997,         0.25
      8, -0.300000012,  0.238585994,         0.25
      9, -0.300000012,  0.288585991,         0.25
     10, -0.300000012,  0.338586003,         0.25
     11, -0.300000012,  0.388586015,         0.25
     12, -0.300000012,  0.438585997,         0.25
     13, -0.300000012,  0.488586009,         0.25
     14, -0.300000012,   0.53858602,         0.25
     15, -0.300000012,  0.588585973,         0.25
     16, -0.300000012,  0.638585985,         0.25
     17, -0.300000012,  0.688585997,         0.25
     18, -0.300000012,  0.738586009,         0.25
     19, -0.300000012,   0.78858602,         0.25
     20, -0.251800001, 0.0462250002,           0.
** ... 193 like lines cut
*Element, type=S4R
  1,   1,   2,  21,  20
  2,   2,   3,  22,  21
  3,   3,   4,  23,  22
  4,   4,   5,  24,  23
  5,   5,   6,  25,  24
  6,   6,   7,  26,  25
  7,   7,   8,  27,  26
  8,   8,   9,  28,  27
  9,   9,  10,  29,  28
 10,  10,  11,  30,  29
 11,  11,  12,  31,  30
 12,  12,  13,  32,  31
 13,  13,  14,  33,  32
 14,  14,  15,  34,  33
 15,  15,  16,  35,  34
 16,  16,  17,  36,  35
 17,  17,  18,  37,  36
 18,  18,  19,  38,  37
 19,  20,  21,  40,  39
 20,  21,  22,  41,  40
** ... 160 like lines cut
*Element, type=T3D2H
181, 210, 211
182, 212, 213
*Nset, nset=shell, generate
   1,  209,    1
*Elset, elset=shell, generate
   1,  180,    1
*Nset, nset=A1
 210, 211
*Elset, elset=A1
 181,
*Nset, nset=A2
 212, 213
*Elset, elset=A2
 182,
*Elset, elset=shell-1
 1,
*Elset, elset=shell-2
 2,
*Elset, elset=shell-3
 3,
*Elset, elset=shell-4
 4,
*Elset, elset=shell-5
 5,
*Elset, elset=shell-6
 6,
*Elset, elset=shell-7
 7,
*Elset, elset=shell-8
 8,
*Elset, elset=shell-9
 9,
*Elset, elset=shell-10
 10,
*Elset, elset=shell-11
 11,
*Elset, elset=shell-12
 12,
*Elset, elset=shell-13
 13,
*Elset, elset=shell-14
 14,
*Elset, elset=shell-15
 15,
*Elset, elset=shell-16
 16,
*Elset, elset=shell-17
 17,
*Elset, elset=shell-18
 18,
*Elset, elset=shell-19
 19,
*Elset, elset=shell-20
** ... 321 like lines cut
*Nset, nset=A1-1-shell
 1,
*Nset, nset=A1-1-beam
 210,
*Nset, nset=A1-2-shell
 197,
*Nset, nset=A1-2-beam
 211,
*Nset, nset=A2-1-shell
 191,
*Nset, nset=A2-1-beam
 212,
*Nset, nset=A2-2-shell
 7,
*Nset, nset=A2-2-beam
 213,
*Nset, nset=BC
 99,
** Section: Section-1-shell-1
*Shell Section, elset=shell-1, material=shell-1
0.01, 5
** Section: Section-2-shell-2
*Shell Section, elset=shell-2, material=shell-2
0.01, 5
** Section: Section-3-shell-3
*Shell Section, elset=shell-3, material=shell-3
0.01, 5
** Section: Section-4-shell-4
*Shell Section, elset=shell-4, material=shell-4
0.01, 5
** Section: Section-5-shell-5
*Shell Section, elset=shell-5, material=shell-5
0.01, 5
** Section: Section-6-shell-6
*Shell Section, elset=shell-6, material=shell-6
0.01, 5
** Section: Section-7-shell-7
*Shell Section, elset=shell-7, material=shell-7
0.01, 5
** Section: Section-8-shell-8
*Shell Section, elset=shell-8, material=shell-8
0.01, 5
** Section: Section-9-shell-9
*Shell Section, elset=shell-9, material=shell-9
0.01, 5
** Section: Section-10-shell-10
*Shell Section, elset=shell-10, material=shell-10
0.01, 5
** Section: Section-11-shell-11
*Shell Section, elset=shell-11, material=shell-11
0.01, 5
** Section: Section-12-shell-12
*Shell Section, elset=shell-12, material=shell-12
0.01, 5
** Section: Section-13-shell-13
*Shell Section, elset=shell-13, material=shell-13
0.01, 5
** Section: Section-14-shell-14
*Shell Section, elset=shell-14, material=shell-14
0.01, 5
** Section: Section-15-shell-15
*Shell Section, elset=shell-15, material=shell-15
0.01, 5
** Section: Section-16-shell-16
*Shell Section, elset=shell-16, material=shell-16
0.01, 5
** Section: Section-17-shell-17
*Shell Section, elset=shell-17, material=shell-17
0.01, 5
** Section: Section-18-shell-18
*Shell Section, elset=shell-18, material=shell-18
0.01, 5
** Section: Section-19-shell-19
*Shell Section, elset=shell-19, material=shell-19
0.01, 5
** Section: Section-20-shell-20
*Shell Section, elset=shell-20, material=shell-20
** ... 481 like lines cut
** Section: Section-181-A1
*Solid Section, elset=A1, material=actuator-1
0.0314,
** Section: Section-182-A2
*Solid Section, elset=A2, material=actuator-2
0.0314,
*End Part
**  
**
** ASSEMBLY
**
*Assembly, name=Assembly
**  
*Instance, name="Instance A", part="Part A"
*End Instance
**  
*Nset, nset=A1-1-shell, instance="Instance A"
 1,
*Nset, nset=A1-1-beam, instance="Instance A"
 210,
*Nset, nset=A1-2-shell, instance="Instance A"
 197,
*Nset, nset=A1-2-beam, instance="Instance A"
 211,
*Nset, nset=A2-1-shell, instance="Instance A"
 191,
*Nset, nset=A2-1-beam, instance="Instance A"
 212,
*Nset, nset=A2-2-shell, instance="Instance A"
 7,
*Nset, nset=A2-2-beam, instance="Instance A"
 213,
*Surface, type=NODE, name=A1-1-beam_CNS_, internal
A1-1-beam, 1.
*Surface, type=NODE, name=A1-1-shell_CNS_, internal
A1-1-shell, 1.
*Surface, type=NODE, name=A1-2-beam_CNS_, internal
A1-2-beam, 1.
*Surface, type=NODE, name=A1-2-shell_CNS_, internal
A1-2-shell, 1.
*Surface, type=NODE, name=A2-1-beam_CNS_, internal
A2-1-beam, 1.
*Surface, type=NODE, name=A2-1-shell_CNS_, internal
A2-1-shell, 1.
*Surface, type=NODE, name=A2-2-beam_CNS_, internal
A2-2-beam, 1.
*Surface, type=NODE, name=A2-2-shell_CNS_, internal
A2-2-shell, 1.
** Constraint: A1-1-1
*Tie, name=A1-1-1, adjust=no, no rotation
A1-1-shell_CNS_, A1-1-beam_CNS_
** Constraint: A1-2-1
*Tie, name=A1-2-1, adjust=no, no rotation
A1-2-shell_CNS_, A1-2-beam_CNS_
** Constraint: A2-1-1
*Tie, name=A2-1-1, adjust=no, no rotation
A2-1-shell_CNS_, A2-1-beam_CNS_
** Constraint: A2-2-1
*Tie, name=A2-2-1, adjust=no, no rotation
A2-2-shell_CNS_, A2-2-beam_CNS_
*End Assembly
** 
** MATERIALS
** 
*Material, name=actuator-1
*Density
8.,
*Elastic
 2.1e+11, 0.3
*Expansion
 0.001478,
*Material, name=actuator-2
*Density
8.,
*Elastic
 2.1e+11, 0.3
*Expansion
 0.001478,
**  ============================================================================
** =
**  MATERIALS
**  ============================================================================
** 
** =
** 
*Material, name=shell-1
*Density
1.,
*Elastic
 5e+09, 0.3
*Material, name=shell-2
*Density
1.,
*Elastic
 5e+09, 0.3
*Material, name=shell-3
*Density
1.,
*Elastic
 5e+09, 0.3
*Material, name=shell-4
*Density
1.,
*Elastic
 5e+09, 0.3
*Material, name=shell-5
*Density
1.,
*Elastic
 5e+09, 0.3
*Material, name=shell-6
*Density
1.,
*Elastic
 5e+09, 0.3
*Material, name=shell-7
*Density
1.,
*Elastic
 5e+09, 0.3
*Material, name=shell-8
*Density
1.,
*Elastic
 5e+09, 0.3
*Material, name=shell-9
*Density
1.,
*Elastic
 5e+09, 0.3
*Material, name=shell-10
*Density
1.,
*Elastic
 5e+09, 0.3
*Material, name=shell-11
*Density
1.,
*Elastic
 5e+09, 0.3
*Material, name=shell-12
*Density
1.,
*Elastic
 5e+09, 0.3
*Material, name=shell-13
*Density
1.,
*Elastic
 5e+09, 0.3
*Material, name=shell-14
*Density
1.,
*Elastic
 5e+09, 0.3
*Material, name=shell-15
*Density
1.,
*Elastic
 5e+09, 0.3
*Material, name=shell-16
*Density
1.,
*Elastic
 5e+09, 0.3
*Material, name=shell-17
*Density
1.,
*Elastic
 5e+09, 0.3
*Material, name=shell-18
*Density
1.,
*Elastic
 5e+09, 0.3
*Material, name=shell-19
*Density
1.,
*Elastic
 5e+09, 0.3
*Material, name=shell-20
*Density
1.,
*Elastic
 5e+09, 0.3
*Material, name=shell-21
*Density
1.,
*Elastic
 5e+09, 0.3
*Material, name=shell-22
*Density
1.,
*Elastic
 5e+09, 0.3
*Material, name=shell-23
*Density
1.,
*Elastic
 5e+09, 0.3
*Material, name=shell-24
*Density
1.,
*Elastic
 5e+09, 0.3
*Material, name=shell-25
*Density
1.,
*Elastic
 5e+09, 0.3
*Material, name=shell-26
*Density
1.,
*Elastic
 5e+09, 0.3
*Material, name=shell-27
*Density
1.,
*Elastic
 5e+09, 0.3
*Material, name=shell-28
*Density
1.,
*Elastic
 5e+09, 0.3
*Material, name=shell-29
*Density
1.,
*Elastic
 5e+09, 0.3
*Material, name=shell-30
*Density
1.,
*Elastic
 5e+09, 0.3
*Material, name=shell-31
*Density
1.,
*Elastic
 5e+09, 0.3
*Material, name=shell-32
*Density
1.,
*Elastic
 5e+09, 0.3
*Material, name=shell-33
*Density
1.,
*Elastic
 5e+09, 0.3
*Material, name=shell-34
*Density
1.,
*Elastic
 5e+09, 0.3
*Material, name=shell-35
*Density
1.,
*Elastic
 5e+09, 0.3
*Material, name=shell-36
*Density
1.,
*Elastic
 5e+09, 0.3
*Material, name=shell-37
*Density
1.,
*Elastic
 5e+09, 0.3
*Material, name=shell-38
*Density
1.,
*Elastic
 5e+09, 0.3
*Material, name=shell-39
*Density
1.,
*Elastic
 5e+09, 0.3
*Material, name=shell-40
*Density
1.,
*Elastic
 5e+09, 0.3
*Material, name=shell-41
*Density
1.,
*Elastic
 5e+09, 0.3
*Material, name=shell-42
*Density
1.,
*Elastic
 5e+09, 0.3
*Material, name=shell-43
*Density
1.,
*Elastic
 5e+09, 0.3
*Material, name=shell-44
*Density
1.,
*Elastic
 5e+09, 0.3
*Material, name=shell-45
*Density
1.,
*Elastic
 5e+09, 0.3
*Material, name=shell-46
*Density
1.,
*Elastic
 5e+09, 0.3
*Material, name=shell-47
*Density
1.,
*Elastic
 5e+09, 0.3
*Material, name=shell-48
*Density
1.,
*Elastic
 5e+09, 0.3
*Material, name=shell-49
*Density
1.,
*Elastic
 5e+09, 0.3
*Material, name=shell-50
*Density
1.,
*Elastic
 5e+09, 0.3
*Material, name=shell-51
*Density
1.,
*Elastic
 5e+09, 0.3
*Material, name=shell-52
*Density
1.,
*Elastic
 5e+09, 0.3
*Material, name=shell-53
*Density
1.,
*Elastic
 5e+09, 0.3
*Material, name=shell-54
*Density
1.,
*Elastic
 5e+09, 0.3
*Material, name=shell-55
*Density
1.,
*Elastic
 5e+09, 0.3
*Material, name=shell-56
*Density
1.,
*Elastic
 5e+09, 0.3
*Material, name=shell-57
*Density
1.,
*Elastic
 5e+09, 0.3
*Material, name=shell-58
*Density
1.,
*Elastic
 5e+09, 0.3
*Material, name=shell-59
*Density
1.,
*Elastic
 5e+09, 0.3
*Material, name=shell-60
*Density
1.,
*Elastic
 5e+09, 0.3
*Material, name=shell-61
*Density
1.,
*Elastic
 5e+09, 0.3
*Material, name=shell-62
*Density
1.,
*Elastic
 5e+09, 0.3
*Material, name=shell-63
*Density
1.,
*Elastic
 5e+09, 0.3
*Material, name=shell-64
*Density
1.,
*Elastic
 5e+09, 0.3
*Material, name=shell-65
*Density
1.,
*Elastic
 5e+09, 0.3
*Material, name=shell-66
*Density
1.,
*Elastic
 5e+09, 0.3
*Material, name=shell-67
*Density
1.,
*Elastic
 5e+09, 0.3
*Material, name=shell-68
*Density
1.,
*Elastic
 5e+09, 0.3
*Material, name=shell-69
*Density
1.,
*Elastic
 5e+09, 0.3
*Material, name=shell-70
*Density
1.,
*Elastic
 5e+09, 0.3
*Material, name=shell-71
*Density
1.,
*Elastic
 5e+09, 0.3
*Material, name=shell-72
*Density
1.,
*Elastic
 5e+09, 0.3
*Material, name=shell-73
*Density
1.,
*Elastic
 5e+09, 0.3
*Material, name=shell-74
*Density
1.,
*Elastic
 5e+09, 0.3
*Material, name=shell-75
*Density
1.,
*Elastic
 5e+09, 0.3
*Material, name=shell-76
*Density
1.,
*Elastic
 5e+09, 0.3
*Material, name=shell-77
*Density
1.,
*Elastic
 5e+09, 0.3
*Material, name=shell-78
*Density
1.,
*Elastic
 5e+09, 0.3
*Material, name=shell-79
*Density
1.,
*Elastic
 5e+09, 0.3
*Material, name=shell-80
*Density
1.,
*Elastic
 5e+09, 0.3
*Material, name=shell-81
*Density
1.,
*Elastic
 5e+09, 0.3
*Material, name=shell-82
*Density
1.,
*Elastic
 5e+09, 0.3
*Material, name=shell-83
*Density
1.,
*Elastic
 5e+09, 0.3
*Material, name=shell-84
*Density
1.,
*Elastic
 5e+09, 0.3
*Material, name=shell-85
*Density
1.,
*Elastic
 5e+09, 0.3
*Material, name=shell-86
*Density
1.,
*Elastic
 5e+09, 0.3
*Material, name=shell-87
*Density
1.,
*Elastic
 5e+09, 0.3
*Material, name=shell-88
*Density
1.,
*Elastic
 5e+09, 0.3
*Material, name=shell-89
*Density
1.,
*Elastic
 5e+09, 0.3
*Material, name=shell-90
*Density
1.,
*Elastic
 5e+09, 0.3
*Material, name=shell-91
*Density
1.,
*Elastic
 5e+09, 0.3
*Material, name=shell-92
*Density
1.,
*Elastic
 5e+09, 0.3
*Material, name=shell-93
*Density
1.,
*Elastic
 5e+09, 0.3
*Material, name=shell-94
*Density
1.,
*Elastic
 5e+09, 0.3
*Material, name=shell-95
*Density
1.,
*Elastic
 5e+09, 0.3
*Material, name=shell-96
*Density
1.,
*Elastic
 5e+09, 0.3
*Material, name=shell-97
*Density
1.,
*Elastic
 5e+09, 0.3
*Material, name=shell-98
*Density
1.,
*Elastic
 5e+09, 0.3
*Material, name=shell-99
*Density
1.,
*Elastic
 5e+09, 0.3
*Material, name=shell-100
*Density
1.,
*Elastic
 5e+09, 0.3
*Material, name=shell-101
*Density
1.,
*Elastic
 5e+09, 0.3
*Material, name=shell-102
*Density
1.,
*Elastic
 5e+09, 0.3
*Material, name=shell-103
*Density
1.,
*Elastic
 5e+09, 0.3
*Material, name=shell-104
*Density
1.,
*Elastic
 5e+09, 0.3
*Material, name=shell-105
*Density
1.,
*Elastic
 5e+09, 0.3
*Material, name=shell-106
*Density
1.,
*Elastic
 5e+09, 0.3
*Material, name=shell-107
*Density
1.,
*Elastic
 5e+09, 0.3
*Material, name=shell-108
*Density
1.,
*Elastic
 5e+09, 0.3
*Material, name=shell-109
*Density
1.,
*Elastic
 5e+09, 0.3
*Material, name=shell-110
*Density
1.,
*Elastic
 5e+09, 0.3
*Material, name=shell-111
*Density
1.,
*Elastic
 5e+09, 0.3
*Material, name=shell-112
*Density
1.,
*Elastic
 5e+09, 0.3
*Material, name=shell-113
*Density
1.,
*Elastic
 5e+09, 0.3
*Material, name=shell-114
*Density
1.,
*Elastic
 5e+09, 0.3
*Material, name=shell-115
*Density
1.,
*Elastic
 5e+09, 0.3
*Material, name=shell-116
*Density
1.,
*Elastic
 5e+09, 0.3
*Material, name=shell-117
*Density
1.,
*Elastic
 5e+09, 0.3
*Material, name=shell-118
*Density
1.,
*Elastic
 5e+09, 0.3
*Material, name=shell-119
*Density
1.,
*Elastic
 5e+09, 0.3
*Material, name=shell-120
*Density
1.,
*Elastic
 5e+09, 0.3
*Material, name=shell-121
*Density
1.,
*Elastic
 5e+09, 0.3
*Material, name=shell-122
*Density
1.,
*Elastic
 5e+09, 0.3
*Material, name=shell-123
*Density
1.,
*Elastic
 5e+09, 0.3
*Material, name=shell-124
*Density
1.,
*Elastic
 5e+09, 0.3
*Material, name=shell-125
*Density
1.,
*Elastic
 5e+09, 0.3
*Material, name=shell-126
*Density
1.,
*Elastic
 5e+09, 0.3
*Material, name=shell-127
*Density
1.,
*Elastic
 5e+09, 0.3
*Material, name=shell-128
*Density
1.,
*Elastic
 5e+09, 0.3
*Material, name=shell-129
*Density
1.,
*Elastic
 5e+09, 0.3
*Material, name=shell-130
*Density
1.,
*Elastic
 5e+09, 0.3
*Material, name=shell-131
*Density
1.,
*Elastic
 5e+09, 0.3
*Material, name=shell-132
*Density
1.,
*Elastic
 5e+09, 0.3
*Material, name=shell-133
*Density
1.,
*Elastic
 5e+09, 0.3
*Material, name=shell-134
*Density
1.,
*Elastic
 5e+09, 0.3
*Material, name=shell-135
*Density
1.,
*Elastic
 5e+09, 0.3
*Material, name=shell-136
*Density
1.,
*Elastic
 5e+09, 0.3
*Material, name=shell-137
*Density
1.,
*Elastic
 5e+09, 0.3
*Material, name=shell-138
*Density
1.,
*Elastic
 5e+09, 0.3
*Material, name=shell-139
*Density
1.,
*Elastic
 5e+09, 0.3
*Material, name=shell-140
*Density
1.,
*Elastic
 5e+09, 0.3
*Material, name=shell-141
*Density
1.,
*Elastic
 5e+09, 0.3
*Material, name=shell-142
*Density
1.,
*Elastic
 5e+09, 0.3
*Material, name=shell-143
*Density
1.,
*Elastic
 5e+09, 0.3
*Material, name=shell-144
*Density
1.,
*Elastic
 5e+09, 0.3
*Material, name=shell-145
*Density
1.,
*Elastic
 5e+09, 0.3
*Material, name=shell-146
*Density
1.,
*Elastic
 5e+09, 0.3
*Material, name=shell-147
*Density
1.,
*Elastic
 5e+09, 0.3
*Material, name=shell-148
*Density
1.,
*Elastic
 5e+09, 0.3
*Material, name=shell-149
*Density
1.,
*Elastic
 5e+09, 0.3
*Material, name=shell-150
*Density
1.,
*Elastic
 5e+09, 0.3
*Material, name=shell-151
*Density
1.,
*Elastic
 5e+09, 0.3
*Material, name=shell-152
*Density
1.,
*Elastic
 5e+09, 0.3
*Material, name=shell-153
*Density
1.,
*Elastic
 5e+09, 0.3
*Material, name=shell-154
*Density
1.,
*Elastic
 5e+09, 0.3
*Material, name=shell-155
*Density
1.,
*Elastic
 5e+09, 0.3
*Material, name=shell-156
*Density
1.,
*Elastic
 5e+09, 0.3
*Material, name=shell-157
*Density
1.,
*Elastic
 5e+09, 0.3
*Material, name=shell-158
*Density
1.,
*Elastic
 5e+09, 0.3
*Material, name=shell-159
*Density
1.,
*Elastic
 5e+09, 0.3
*Material, name=shell-160
*Density
1.,
*Elastic
 5e+09, 0.3
*Material, name=shell-161
*Density
1.,
*Elastic
 5e+09, 0.3
*Material, name=shell-162
*Density
1.,
*Elastic
 5e+09, 0.3
*Material, name=shell-163
*Density
1.,
*Elastic
 5e+09, 0.3
*Material, name=shell-164
*Density
1.,
*Elastic
 5e+09, 0.3
*Material, name=shell-165
*Density
1.,
*Elastic
 5e+09, 0.3
*Material, name=shell-166
*Density
1.,
*Elastic
 5e+09, 0.3
*Material, name=shell-167
*Density
1.,
*Elastic
 5e+09, 0.3
*Material, name=shell-168
*Density
1.,
*Elastic
 5e+09, 0.3
*Material, name=shell-169
*Density
1.,
*Elastic
 5e+09, 0.3
*Material, name=shell-170
*Density
1.,
*Elastic
 5e+09, 0.3
*Material, name=shell-171
*Density
1.,
*Elastic
 5e+09, 0.3
*Material, name=shell-172
*Density
1.,
*Elastic
 5e+09, 0.3
*Material, name=shell-173
*Density
1.,
*Elastic
 5e+09, 0.3
*Material, name=shell-174
*Density
1.,
*Elastic
 5e+09, 0.3
*Material, name=shell-175
*Density
1.,
*Elastic
 5e+09, 0.3
*Material, name=shell-176
*Density
1.,
*Elastic
 5e+09, 0.3
*Material, name=shell-177
*Density
1.,
*Elastic
 5e+09, 0.3
*Material, name=shell-178
*Density
1.,
*Elastic
 5e+09, 0.3
*Material, name=shell-179
*Density
1.,
*Elastic
 5e+09, 0.3
*Material, name=shell-180
*Density
1.,
*Elastic
 5e+09, 0.3
** 
** BOUNDARY CONDITIONS
** 
** Name: Disp-BC-1 Type: Symmetry/Antisymmetry/Encastre
*Boundary
"Instance A".BC, ENCASTRE
** 
** PREDEFINED FIELDS
** 
** Name: T1   Type: Temperature
*Initial Conditions, type=TEMPERATURE
"Instance A".A1, 0.
** Name: T2   Type: Temperature
*Initial Conditions, type=TEMPERATURE
"Instance A".A2, 0.
** ----------------------------------------------------------------
** 
** STEP: (-50,-50)
** 
*Step, name="(-50,-50)", nlgeom=YES, inc=200
*Static
0.01, 1., 1e-06, 0.05
** 
** PREDEFINED FIELDS
** 
** Name: T1   Type: Temperature
*Temperature
"Instance A".A1, -50.
** Name: T2   Type: Temperature
*Temperature
"Instance A".A2, -50.
** 
** OUTPUT REQUESTS
** 
*Restart, write, frequency=0
** 
** FIELD OUTPUT: F-Output-1
** 
*Output, field, variable=PRESELECT
** 
** HISTORY OUTPUT: H-Output-1
** 
*Output, history, variable=PRESELECT
*End Step
** ----------------------------------------------------------------
** 
** STEP: (-25,-50)
** 
*Step, name="(-25,-50)", nlgeom=YES, inc=200
*Static
0.01, 1., 1e-06, 0.05
** 
** PREDEFINED FIELDS
** 
** Name: T1   Type: Temperature
*Temperature
"Instance A".A1, -25.
** Name: T2   Type: Temperature
*Temperature
"Instance A".A2, -50.
** 
** OUTPUT REQUESTS
** 
*Restart, write, frequency=0
** 
** FIELD OUTPUT: F-Output-1
** 
*Output, field, variable=PRESELECT
** 
** HISTORY OUTPUT: H-Output-1
** 
*Output, history, variable=PRESELECT
*End Step
** ----------------------------------------------------------------
** 
** STEP: (0,-50)
** 
*Step, name="(0,-50)", nlgeom=YES, inc=200
*Static
0.01, 1., 1e-06, 0.05
** 
** PREDEFINED FIELDS
** 
** Name: T1   Type: Temperature
*Temperature
"Instance A".A1, 0.
** Name: T2   Type: Temperature
*Temperature
"Instance A".A2, -50.
** 
** OUTPUT REQUESTS
** 
*Restart, write, frequency=0
** 
** FIELD OUTPUT: F-Output-1
** 
*Output, field, variable=PRESELECT
** 
** HISTORY OUTPUT: H-Output-1
** 
*Output, history, variable=PRESELECT
*End Step
** ----------------------------------------------------------------
** 
** STEP: (25,-50)
** 
*Step, name="(25,-50)", nlgeom=YES, inc=200
*Static
0.01, 1., 1e-06, 0.05
** 
** PREDEFINED FIELDS
** 
** Name: T1   Type: Temperature
*Temperature
"Instance A".A1, 25.
** Name: T2   Type: Temperature
*Temperature
"Instance A".A2, -50.
** 
** OUTPUT REQUESTS
** 
*Restart, write, frequency=0
** 
** FIELD OUTPUT: F-Output-1
** 
*Output, field, variable=PRESELECT
** 
** HISTORY OUTPUT: H-Output-1
** 
*Output, history, variable=PRESELECT
*End Step
** ----------------------------------------------------------------
** 
** STEP: (-50,-25)
** 
*Step, name="(-50,-25)", nlgeom=YES, inc=200
*Static
0.01, 1., 1e-06, 0.05
** 
** PREDEFINED FIELDS
** 
** Name: T1   Type: Temperature
*Temperature
"Instance A".A1, -50.
** Name: T2   Type: Temperature
*Temperature
"Instance A".A2, -25.
** 
** OUTPUT REQUESTS
** 
*Restart, write, frequency=0
** 
** FIELD OUTPUT: F-Output-1
** 
*Output, field, variable=PRESELECT
** 
** HISTORY OUTPUT: H-Output-1
** 
*Output, history, variable=PRESELECT
*End Step
** ----------------------------------------------------------------
** 
** STEP: (-25,-25)
** 
*Step, name="(-25,-25)", nlgeom=YES, inc=200
*Static
0.01, 1., 1e-06, 0.05
** 
** PREDEFINED FIELDS
** 
** Name: T1   Type: Temperature
*Temperature
"Instance A".A1, -25.
** Name: T2   Type: Temperature
*Temperature
"Instance A".A2, -25.
** 
** OUTPUT REQUESTS
** 
*Restart, write, frequency=0
** 
** FIELD OUTPUT: F-Output-1
** 
*Output, field, variable=PRESELECT
** 
** HISTORY OUTPUT: H-Output-1
** 
*Output, history, variable=PRESELECT
*End Step
** ----------------------------------------------------------------
** 
** STEP: (0,-25)
** 
*Step, name="(0,-25)", nlgeom=YES, inc=200
*Static
0.01, 1., 1e-06, 0.05
** 
** PREDEFINED FIELDS
** 
** Name: T1   Type: Temperature
*Temperature
"Instance A".A1, 0.
** Name: T2   Type: Temperature
*Temperature
"Instance A".A2, -25.
** 
** OUTPUT REQUESTS
** 
*Restart, write, frequency=0
** 
** FIELD OUTPUT: F-Output-1
** 
*Output, field, variable=PRESELECT
** 
** HISTORY OUTPUT: H-Output-1
** 
*Output, history, variable=PRESELECT
*End Step
** ----------------------------------------------------------------
** 
** STEP: (25,-25)
** 
*Step, name="(25,-25)", nlgeom=YES, inc=200
*Static
0.01, 1., 1e-06, 0.05
** 
** PREDEFINED FIELDS
** 
** Name: T1   Type: Temperature
*Temperature
"Instance A".A1, 25.
** Name: T2   Type: Temperature
*Temperature
"Instance A".A2, -25.
** 
** OUTPUT REQUESTS
** 
*Restart, write, frequency=0
** 
** FIELD OUTPUT: F-Output-1
** 
*Output, field, variable=PRESELECT
** 
** HISTORY OUTPUT: H-Output-1
** 
*Output, history, variable=PRESELECT
*End Step
** ----------------------------------------------------------------
** 
** STEP: (-50,0)
** 
*Step, name="(-50,0)", nlgeom=YES, inc=200
*Static
0.01, 1., 1e-06, 0.05
** 
** PREDEFINED FIELDS
** 
** Name: T1   Type: Temperature
*Temperature
"Instance A".A1, -50.
** Name: T2   Type: Temperature
*Temperature
"Instance A".A2, 0.
** 
** OUTPUT REQUESTS
** 
*Restart, write, frequency=0
** 
** FIELD OUTPUT: F-Output-1
** 
*Output, field, variable=PRESELECT
** 
** HISTORY OUTPUT: H-Output-1
** 
*Output, history, variable=PRESELECT
*End Step
** ----------------------------------------------------------------
** 
** STEP: (-25,0)
** 
*Step, name="(-25,0)", nlgeom=YES, inc=200
*Static
0.01, 1., 1e-06, 0.05
** 
** PREDEFINED FIELDS
** 
** Name: T1   Type: Temperature
*Temperature
"Instance A".A1, -25.
** Name: T2   Type: Temperature
*Temperature
"Instance A".A2, 0.
** 
** OUTPUT REQUESTS
** 
*Restart, write, frequency=0
** 
** FIELD OUTPUT: F-Output-1
** 
*Output, field, variable=PRESELECT
** 
** HISTORY OUTPUT: H-Output-1
** 
*Output, history, variable=PRESELECT
*End Step
** ----------------------------------------------------------------
** 
** STEP: (0,0)
** 
*Step, name="(0,0)", nlgeom=YES, inc=200
*Static
0.01, 1., 1e-06, 0.05
** 
** PREDEFINED FIELDS
** 
** Name: T1   Type: Temperature
*Temperature
"Instance A".A1, 0.
** Name: T2   Type: Temperature
*Temperature
"Instance A".A2, 0.
** 
** OUTPUT REQUESTS
** 
*Restart, write, frequency=0
** 
** FIELD OUTPUT: F-Output-1
** 
*Output, field, variable=PRESELECT
** 
** HISTORY OUTPUT: H-Output-1
** 
*Output, history, variable=PRESELECT
*End Step
** ----------------------------------------------------------------
** 
** STEP: (25,0)
** 
*Step, name="(25,0)", nlgeom=YES, inc=200
*Static
0.01, 1., 1e-06, 0.05
** 
** PREDEFINED FIELDS
** 
** Name: T1   Type: Temperature
*Temperature
"Instance A".A1, 25.
** Name: T2   Type: Temperature
*Temperature
"Instance A".A2, 0.
** 
** OUTPUT REQUESTS
** 
*Restart, write, frequency=0
** 
** FIELD OUTPUT: F-Output-1
** 
*Output, field, variable=PRESELECT
** 
** HISTORY OUTPUT: H-Output-1
** 
*Output, history, variable=PRESELECT
*End Step
** ----------------------------------------------------------------
** 
** STEP: (-50,25)
** 
*Step, name="(-50,25)", nlgeom=YES, inc=200
*Static
0.01, 1., 1e-06, 0.05
** 
** PREDEFINED FIELDS
** 
** Name: T1   Type: Temperature
*Temperature
"Instance A".A1, -50.
** Name: T2   Type: Temperature
*Temperature
"Instance A".A2, 25.
** 
** OUTPUT REQUESTS
** 
*Restart, write, frequency=0
** 
** FIELD OUTPUT: F-Output-1
** 
*Output, field, variable=PRESELECT
** 
** HISTORY OUTPUT: H-Output-1
** 
*Output, history, variable=PRESELECT
*End Step
** ----------------------------------------------------------------
** 
** STEP: (-25,25)
** 
*Step, name="(-25,25)", nlgeom=YES, inc=200
*Static
0.01, 1., 1e-06, 0.05
** 
** PREDEFINED FIELDS
** 
** Name: T1   Type: Temperature
*Temperature
"Instance A".A1, -25.
** Name: T2   Type: Temperature
*Temperature
"Instance A".A2, 25.
** 
** OUTPUT REQUESTS
** 
*Restart, write, frequency=0
** 
** FIELD OUTPUT: F-Output-1
** 
*Output, field, variable=PRESELECT
** 
** HISTORY OUTPUT: H-Output-1
** 
*Output, history, variable=PRESELECT
*End Step
** ----------------------------------------------------------------
** 
** STEP: (0,25)
** 
*Step, name="(0,25)", nlgeom=YES, inc=200
*Static
0.01, 1., 1e-06, 0.05
** 
** PREDEFINED FIELDS
** 
** Name: T1   Type: Temperature
*Temperature
"Instance A".A1, 0.
** Name: T2   Type: Temperature
*Temperature
"Instance A".A2, 25.
** 
** OUTPUT REQUESTS
** 
*Restart, write, frequency=0
** 
** FIELD OUTPUT: F-Output-1
** 
*Output, field, variable=PRESELECT
** 
** HISTORY OUTPUT: H-Output-1
** 
*Output, history, variable=PRESELECT
*End Step
** ----------------------------------------------------------------
** 
** STEP: (25,25)
** 
*Step, name="(25,25)", nlgeom=YES, inc=200
*Static
0.01, 1., 1e-06, 0.05
** 
** PREDEFINED FIELDS
** 
** Name: T1   Type: Temperature
*Temperature
"Instance A".A1, 25.
** Name: T2   Type: Temperature
*Temperature
"Instance A".A2, 25.
** 
** OUTPUT REQUESTS
** 
*Restart, write, frequency=0
** 
** FIELD OUTPUT: F-Output-1
** 
*Output, field, variable=PRESELECT
** 
** HISTORY OUTPUT: H-Output-1
** 
*Output, history, variable=PRESELECT
*End Step
