 Abaqus/Standard 6.12-1                  DATE 16-déc.-2016 TIME 10:18:44
 SUMMARY OF JOB INFORMATION:
 STEP  INC ATT SEVERE EQUIL TOTAL  TOTAL      STEP       INC OF       DOF    IF
               DISCON ITERS ITERS  TIME/    TIME/LPF    TIME/LPF    MONITOR RIKS
               ITERS               FREQ
   1     1   1     0     3     3  0.0100     0.0100     0.01000   
   1     2   1     0     1     1  0.0200     0.0200     0.01000   
   1     3   1     0     1     1  0.0350     0.0350     0.01500   
   1     4   1     0     1     1  0.0575     0.0575     0.02250   
   1     5   1     0     2     2  0.0912     0.0912     0.03375   
   1     6   1     0     2     2  0.141      0.141      0.05000   
   1     7   1     0     2     2  0.191      0.191      0.05000   
   1     8   1     0     2     2  0.241      0.241      0.05000   
   1     9   1     0     2     2  0.291      0.291      0.05000   
   1    10   1     0     2     2  0.341      0.341      0.05000   
   1    11   1     0     2     2  0.391      0.391      0.05000   
   1    12   1     0     2     2  0.441      0.441      0.05000   
   1    13   1     0     2     2  0.491      0.491      0.05000   
   1    14   1     0     2     2  0.541      0.541      0.05000   
   1    15   1     0     2     2  0.591      0.591      0.05000   
   1    16   1     0     2     2  0.641      0.641      0.05000   
   1    17   1     0     2     2  0.691      0.691      0.05000   
   1    18   1     0     2     2  0.741      0.741      0.05000   
   1    19   1     0     2     2  0.791      0.791      0.05000   
   1    20   1     0     2     2  0.841      0.841      0.05000   
   1    21   1     0     2     2  0.891      0.891      0.05000   
   1    22   1     0     2     2  0.941      0.941      0.05000   
   1    23   1     0     2     2  0.991      0.991      0.05000   
   1    24   1     0     1     1  1.00       1.00       0.008750  
   2     1   1     0     2     2  1.01       0.0100     0.01000   
   2     2   1     0     1     1  1.02       0.0200     0.01000   
   2     3   1     0     1     1  1.03       0.0350     0.01500   
   2     4   1     0     1     1  1.06       0.0575     0.02250   
   2     5   1     0     1     1  1.09       0.0912     0.03375   
   2     6   1     0     1     1  1.14       0.141      0.05000   
   2     7   1     0     1     1  1.19       0.191      0.05000   
   2     8   1     0     1     1  1.24       0.241      0.05000   
   2     9   1     0     1     1  1.29       0.291      0.05000   
   2    10   1     0     1     1  1.34       0.341      0.05000   
   2    11   1     0     1     1  1.39       0.391      0.05000   
   2    12   1     0     1     1  1.44       0.441      0.05000   
   2    13   1     0     1     1  1.49       0.491      0.05000   
   2    14   1     0     1     1  1.54       0.541      0.05000   
   2    15   1     0     1     1  1.59       0.591      0.05000   
   2    16   1     0     1     1  1.64       0.641      0.05000   
   2    17   1     0     1     1  1.69       0.691      0.05000   
   2    18   1     0     1     1  1.74       0.741      0.05000   
   2    19   1     0     1     1  1.79       0.791      0.05000   
   2    20   1     0     1     1  1.84       0.841      0.05000   
   2    21   1     0     1     1  1.89       0.891      0.05000   
   2    22   1     0     1     1  1.94       0.941      0.05000   
   2    23   1     0     1     1  1.99       0.991      0.05000   
   2    24   1     0     1     1  2.00       1.00       0.008750  
   3     1   1     0     2     2  2.01       0.0100     0.01000   
   3     2   1     0     1     1  2.02       0.0200     0.01000   
   3     3   1     0     1     1  2.04       0.0350     0.01500   
   3     4   1     0     1     1  2.06       0.0575     0.02250   
   3     5   1     0     1     1  2.09       0.0912     0.03375   
   3     6   1     0     1     1  2.14       0.141      0.05000   
   3     7   1     0     1     1  2.19       0.191      0.05000   
   3     8   1     0     1     1  2.24       0.241      0.05000   
   3     9   1     0     1     1  2.29       0.291      0.05000   
   3    10   1     0     1     1  2.34       0.341      0.05000   
   3    11   1     0     1     1  2.39       0.391      0.05000   
   3    12   1     0     1     1  2.44       0.441      0.05000   
   3    13   1     0     1     1  2.49       0.491      0.05000   
   3    14   1     0     1     1  2.54       0.541      0.05000   
   3    15   1     0     1     1  2.59       0.591      0.05000   
   3    16   1     0     1     1  2.64       0.641      0.05000   
   3    17   1     0     1     1  2.69       0.691      0.05000   
   3    18   1     0     1     1  2.74       0.741      0.05000   
   3    19   1     0     1     1  2.79       0.791      0.05000   
   3    20   1     0     1     1  2.84       0.841      0.05000   
   3    21   1     0     1     1  2.89       0.891      0.05000   
   3    22   1     0     1     1  2.94       0.941      0.05000   
   3    23   1     0     1     1  2.99       0.991      0.05000   
   3    24   1     0     1     1  3.00       1.00       0.008750  
   4     1   1     0     2     2  3.01       0.0100     0.01000   
   4     2   1     0     1     1  3.02       0.0200     0.01000   
   4     3   1     0     1     1  3.03       0.0350     0.01500   
   4     4   1     0     1     1  3.06       0.0575     0.02250   
   4     5   1     0     1     1  3.09       0.0912     0.03375   
   4     6   1     0     1     1  3.14       0.141      0.05000   
   4     7   1     0     1     1  3.19       0.191      0.05000   
   4     8   1     0     1     1  3.24       0.241      0.05000   
   4     9   1     0     1     1  3.29       0.291      0.05000   
   4    10   1     0     1     1  3.34       0.341      0.05000   
   4    11   1     0     1     1  3.39       0.391      0.05000   
   4    12   1     0     1     1  3.44       0.441      0.05000   
   4    13   1     0     1     1  3.49       0.491      0.05000   
   4    14   1     0     1     1  3.54       0.541      0.05000   
   4    15   1     0     1     1  3.59       0.591      0.05000   
   4    16   1     0     1     1  3.64       0.641      0.05000   
   4    17   1     0     1     1  3.69       0.691      0.05000   
   4    18   1     0     1     1  3.74       0.741      0.05000   
   4    19   1     0     1     1  3.79       0.791      0.05000   
   4    20   1     0     1     1  3.84       0.841      0.05000   
   4    21   1     0     1     1  3.89       0.891      0.05000   
   4    22   1     0     1     1  3.94       0.941      0.05000   
   4    23   1     0     1     1  3.99       0.991      0.05000   
   4    24   1     0     1     1  4.00       1.00       0.008750  
   5     1   1     0     3     3  4.01       0.0100     0.01000   
   5     2   1     0     1     1  4.02       0.0200     0.01000   
   5     3   1     0     1     1  4.03       0.0350     0.01500   
   5     4   1     0     1     1  4.06       0.0575     0.02250   
   5     5   1     0     2     2  4.09       0.0912     0.03375   
   5     6   1     0     2     2  4.14       0.141      0.05000   
   5     7   1     0     2     2  4.19       0.191      0.05000   
   5     8   1     0     2     2  4.24       0.241      0.05000   
   5     9   1     0     2     2  4.29       0.291      0.05000   
   5    10   1     0     2     2  4.34       0.341      0.05000   
   5    11   1     0     2     2  4.39       0.391      0.05000   
   5    12   1     0     2     2  4.44       0.441      0.05000   
   5    13   1     0     2     2  4.49       0.491      0.05000   
   5    14   1     0     2     2  4.54       0.541      0.05000   
   5    15   1     0     2     2  4.59       0.591      0.05000   
   5    16   1     0     2     2  4.64       0.641      0.05000   
   5    17   1     0     2     2  4.69       0.691      0.05000   
   5    18   1     0     2     2  4.74       0.741      0.05000   
   5    19   1     0     2     2  4.79       0.791      0.05000   
   5    20   1     0     2     2  4.84       0.841      0.05000   
   5    21   1     0     2     2  4.89       0.891      0.05000   
   5    22   1     0     2     2  4.94       0.941      0.05000   
   5    23   1     0     2     2  4.99       0.991      0.05000   
   5    24   1     0     1     1  5.00       1.00       0.008750  
   6     1   1     0     2     2  5.01       0.0100     0.01000   
   6     2   1     0     1     1  5.02       0.0200     0.01000   
   6     3   1     0     1     1  5.03       0.0350     0.01500   
   6     4   1     0     1     1  5.06       0.0575     0.02250   
   6     5   1     0     1     1  5.09       0.0912     0.03375   
   6     6   1     0     1     1  5.14       0.141      0.05000   
   6     7   1     0     1     1  5.19       0.191      0.05000   
   6     8   1     0     1     1  5.24       0.241      0.05000   
   6     9   1     0     1     1  5.29       0.291      0.05000   
   6    10   1     0     1     1  5.34       0.341      0.05000   
   6    11   1     0     1     1  5.39       0.391      0.05000   
   6    12   1     0     1     1  5.44       0.441      0.05000   
   6    13   1     0     1     1  5.49       0.491      0.05000   
   6    14   1     0     1     1  5.54       0.541      0.05000   
   6    15   1     0     1     1  5.59       0.591      0.05000   
   6    16   1     0     1     1  5.64       0.641      0.05000   
   6    17   1     0     1     1  5.69       0.691      0.05000   
   6    18   1     0     1     1  5.74       0.741      0.05000   
   6    19   1     0     1     1  5.79       0.791      0.05000   
   6    20   1     0     1     1  5.84       0.841      0.05000   
   6    21   1     0     1     1  5.89       0.891      0.05000   
   6    22   1     0     1     1  5.94       0.941      0.05000   
   6    23   1     0     1     1  5.99       0.991      0.05000   
   6    24   1     0     1     1  6.00       1.00       0.008750  
   7     1   1     0     2     2  6.01       0.0100     0.01000   
   7     2   1     0     1     1  6.02       0.0200     0.01000   
   7     3   1     0     1     1  6.03       0.0350     0.01500   
   7     4   1     0     1     1  6.06       0.0575     0.02250   
   7     5   1     0     1     1  6.09       0.0912     0.03375   
   7     6   1     0     1     1  6.14       0.141      0.05000   
   7     7   1     0     1     1  6.19       0.191      0.05000   
   7     8   1     0     1     1  6.24       0.241      0.05000   
   7     9   1     0     1     1  6.29       0.291      0.05000   
   7    10   1     0     1     1  6.34       0.341      0.05000   
   7    11   1     0     1     1  6.39       0.391      0.05000   
   7    12   1     0     1     1  6.44       0.441      0.05000   
   7    13   1     0     1     1  6.49       0.491      0.05000   
   7    14   1     0     1     1  6.54       0.541      0.05000   
   7    15   1     0     1     1  6.59       0.591      0.05000   
   7    16   1     0     1     1  6.64       0.641      0.05000   
   7    17   1     0     1     1  6.69       0.691      0.05000   
   7    18   1     0     1     1  6.74       0.741      0.05000   
   7    19   1     0     1     1  6.79       0.791      0.05000   
   7    20   1     0     1     1  6.84       0.841      0.05000   
   7    21   1     0     1     1  6.89       0.891      0.05000   
   7    22   1     0     1     1  6.94       0.941      0.05000   
   7    23   1     0     1     1  6.99       0.991      0.05000   
   7    24   1     0     1     1  7.00       1.00       0.008750  
   8     1   1     0     2     2  7.01       0.0100     0.01000   
   8     2   1     0     1     1  7.02       0.0200     0.01000   
   8     3   1     0     1     1  7.03       0.0350     0.01500   
   8     4   1     0     1     1  7.06       0.0575     0.02250   
   8     5   1     0     1     1  7.09       0.0912     0.03375   
   8     6   1     0     1     1  7.14       0.141      0.05000   
   8     7   1     0     1     1  7.19       0.191      0.05000   
   8     8   1     0     1     1  7.24       0.241      0.05000   
   8     9   1     0     1     1  7.29       0.291      0.05000   
   8    10   1     0     1     1  7.34       0.341      0.05000   
   8    11   1     0     1     1  7.39       0.391      0.05000   
   8    12   1     0     1     1  7.44       0.441      0.05000   
   8    13   1     0     1     1  7.49       0.491      0.05000   
   8    14   1     0     1     1  7.54       0.541      0.05000   
   8    15   1     0     1     1  7.59       0.591      0.05000   
   8    16   1     0     1     1  7.64       0.641      0.05000   
   8    17   1     0     1     1  7.69       0.691      0.05000   
   8    18   1     0     1     1  7.74       0.741      0.05000   
   8    19   1     0     1     1  7.79       0.791      0.05000   
   8    20   1     0     2     2  7.84       0.841      0.05000   
   8    21   1     0     2     2  7.89       0.891      0.05000   
   8    22   1     0     2     2  7.94       0.941      0.05000   
   8    23   1     0     2     2  7.99       0.991      0.05000   
   8    24   1     0     1     1  8.00       1.00       0.008750  
   9     1   1     0     3     3  8.01       0.0100     0.01000   
   9     2   1     0     1     1  8.02       0.0200     0.01000   
   9     3   1     0     1     1  8.03       0.0350     0.01500   
   9     4   1     0     1     1  8.06       0.0575     0.02250   
   9     5   1     0     2     2  8.09       0.0912     0.03375   
   9     6   1     0     2     2  8.14       0.141      0.05000   
   9     7   1     0     2     2  8.19       0.191      0.05000   
   9     8   1     0     2     2  8.24       0.241      0.05000   
   9     9   1     0     2     2  8.29       0.291      0.05000   
   9    10   1     0     2     2  8.34       0.341      0.05000   
   9    11   1     0     2     2  8.39       0.391      0.05000   
   9    12   1     0     2     2  8.44       0.441      0.05000   
   9    13   1     0     2     2  8.49       0.491      0.05000   
   9    14   1     0     2     2  8.54       0.541      0.05000   
   9    15   1     0     2     2  8.59       0.591      0.05000   
   9    16   1     0     2     2  8.64       0.641      0.05000   
   9    17   1     0     2     2  8.69       0.691      0.05000   
   9    18   1     0     2     2  8.74       0.741      0.05000   
   9    19   1     0     2     2  8.79       0.791      0.05000   
   9    20   1     0     2     2  8.84       0.841      0.05000   
   9    21   1     0     2     2  8.89       0.891      0.05000   
   9    22   1     0     2     2  8.94       0.941      0.05000   
   9    23   1     0     2     2  8.99       0.991      0.05000   
   9    24   1     0     1     1  9.00       1.00       0.008750  
  10     1   1     0     2     2  9.01       0.0100     0.01000   
  10     2   1     0     1     1  9.02       0.0200     0.01000   
  10     3   1     0     1     1  9.03       0.0350     0.01500   
  10     4   1     0     1     1  9.06       0.0575     0.02250   
  10     5   1     0     1     1  9.09       0.0912     0.03375   
  10     6   1     0     1     1  9.14       0.141      0.05000   
  10     7   1     0     1     1  9.19       0.191      0.05000   
  10     8   1     0     1     1  9.24       0.241      0.05000   
  10     9   1     0     1     1  9.29       0.291      0.05000   
  10    10   1     0     1     1  9.34       0.341      0.05000   
  10    11   1     0     1     1  9.39       0.391      0.05000   
  10    12   1     0     1     1  9.44       0.441      0.05000   
  10    13   1     0     1     1  9.49       0.491      0.05000   
  10    14   1     0     1     1  9.54       0.541      0.05000   
  10    15   1     0     1     1  9.59       0.591      0.05000   
  10    16   1     0     1     1  9.64       0.641      0.05000   
  10    17   1     0     1     1  9.69       0.691      0.05000   
  10    18   1     0     1     1  9.74       0.741      0.05000   
  10    19   1     0     1     1  9.79       0.791      0.05000   
  10    20   1     0     1     1  9.84       0.841      0.05000   
  10    21   1     0     1     1  9.89       0.891      0.05000   
  10    22   1     0     1     1  9.94       0.941      0.05000   
  10    23   1     0     1     1  9.99       0.991      0.05000   
  10    24   1     0     1     1  10.0       1.00       0.008750  
  11     1   1     0     2     2  10.0       0.0100     0.01000   
  11     2   1     0     1     1  10.0       0.0200     0.01000   
  11     3   1     0     1     1  10.0       0.0350     0.01500   
  11     4   1     0     1     1  10.1       0.0575     0.02250   
  11     5   1     0     1     1  10.1       0.0912     0.03375   
  11     6   1     0     1     1  10.1       0.141      0.05000   
  11     7   1     0     1     1  10.2       0.191      0.05000   
  11     8   1     0     1     1  10.2       0.241      0.05000   
  11     9   1     0     1     1  10.3       0.291      0.05000   
  11    10   1     0     1     1  10.3       0.341      0.05000   
  11    11   1     0     1     1  10.4       0.391      0.05000   
  11    12   1     0     1     1  10.4       0.441      0.05000   
  11    13   1     0     1     1  10.5       0.491      0.05000   
  11    14   1     0     1     1  10.5       0.541      0.05000   
  11    15   1     0     1     1  10.6       0.591      0.05000   
  11    16   1     0     1     1  10.6       0.641      0.05000   
  11    17   1     0     1     1  10.7       0.691      0.05000   
  11    18   1     0     1     1  10.7       0.741      0.05000   
  11    19   1     0     1     1  10.8       0.791      0.05000   
  11    20   1     0     1     1  10.8       0.841      0.05000   
  11    21   1     0     1     1  10.9       0.891      0.05000   
  11    22   1     0     1     1  10.9       0.941      0.05000   
  11    23   1     0     1     1  11.0       0.991      0.05000   
  11    24   1     0     1     1  11.0       1.00       0.008750  
  12     1   1     0     3     3  11.0       0.0100     0.01000   
  12     2   1     0     1     1  11.0       0.0200     0.01000   
  12     3   1     0     1     1  11.0       0.0350     0.01500   
  12     4   1     0     1     1  11.1       0.0575     0.02250   
  12     5   1     0     1     1  11.1       0.0912     0.03375   
  12     6   1     0     2     2  11.1       0.141      0.05000   
  12     7   1     0     2     2  11.2       0.191      0.05000   
  12     8   1     0     2     2  11.2       0.241      0.05000   
  12     9   1     0     2     2  11.3       0.291      0.05000   
  12    10   1     0     2     2  11.3       0.341      0.05000   
  12    11   1     0     2     2  11.4       0.391      0.05000   
  12    12   1     0     2     2  11.4       0.441      0.05000   
  12    13   1     0     2     2  11.5       0.491      0.05000   
  12    14   1     0     2     2  11.5       0.541      0.05000   
  12    15   1     0     2     2  11.6       0.591      0.05000   
  12    16   1     0     2     2  11.6       0.641      0.05000   
  12    17   1     0     2     2  11.7       0.691      0.05000   
  12    18   1     0     2     2  11.7       0.741      0.05000   
  12    19   1     0     2     2  11.8       0.791      0.05000   
  12    20   1     0     2     2  11.8       0.841      0.05000   
  12    21   1     0     2     2  11.9       0.891      0.05000   
  12    22   1     0     2     2  11.9       0.941      0.05000   
  12    23   1     0     2     2  12.0       0.991      0.05000   
  12    24   1     0     1     1  12.0       1.00       0.008750  
  13     1   1     0     3     3  12.0       0.0100     0.01000   
  13     2   1     0     1     1  12.0       0.0200     0.01000   
  13     3   1     0     1     1  12.0       0.0350     0.01500   
  13     4   1     0     2     2  12.1       0.0575     0.02250   
  13     5   1     0     2     2  12.1       0.0912     0.03375   
  13     6   1     0     2     2  12.1       0.141      0.05000   
  13     7   1     0     2     2  12.2       0.191      0.05000   
  13     8   1     0     2     2  12.2       0.241      0.05000   
  13     9   1     0     2     2  12.3       0.291      0.05000   
  13    10   1     0     2     2  12.3       0.341      0.05000   
  13    11   1     0     2     2  12.4       0.391      0.05000   
  13    12   1     0     2     2  12.4       0.441      0.05000   
  13    13   1     0     2     2  12.5       0.491      0.05000   
  13    14   1     0     2     2  12.5       0.541      0.05000   
  13    15   1     0     2     2  12.6       0.591      0.05000   
  13    16   1     0     2     2  12.6       0.641      0.05000   
  13    17   1     0     2     2  12.7       0.691      0.05000   
  13    18   1     0     2     2  12.7       0.741      0.05000   
  13    19   1     0     2     2  12.8       0.791      0.05000   
  13    20   1     0     2     2  12.8       0.841      0.05000   
  13    21   1     0     2     2  12.9       0.891      0.05000   
  13    22   1     0     2     2  12.9       0.941      0.05000   
  13    23   1     0     2     2  13.0       0.991      0.05000   
  13    24   1     0     1     1  13.0       1.00       0.008750  
  14     1   1     0     2     2  13.0       0.0100     0.01000   
  14     2   1     0     1     1  13.0       0.0200     0.01000   
  14     3   1     0     1     1  13.0       0.0350     0.01500   
  14     4   1     0     1     1  13.1       0.0575     0.02250   
  14     5   1     0     1     1  13.1       0.0912     0.03375   
  14     6   1     0     1     1  13.1       0.141      0.05000   
  14     7   1     0     1     1  13.2       0.191      0.05000   
  14     8   1     0     1     1  13.2       0.241      0.05000   
  14     9   1     0     1     1  13.3       0.291      0.05000   
  14    10   1     0     1     1  13.3       0.341      0.05000   
  14    11   1     0     1     1  13.4       0.391      0.05000   
  14    12   1     0     1     1  13.4       0.441      0.05000   
  14    13   1     0     1     1  13.5       0.491      0.05000   
  14    14   1     0     1     1  13.5       0.541      0.05000   
  14    15   1     0     1     1  13.6       0.591      0.05000   
  14    16   1     0     1     1  13.6       0.641      0.05000   
  14    17   1     0     1     1  13.7       0.691      0.05000   
  14    18   1     0     1     1  13.7       0.741      0.05000   
  14    19   1     0     1     1  13.8       0.791      0.05000   
  14    20   1     0     1     1  13.8       0.841      0.05000   
  14    21   1     0     1     1  13.9       0.891      0.05000   
  14    22   1     0     1     1  13.9       0.941      0.05000   
  14    23   1     0     1     1  14.0       0.991      0.05000   
  14    24   1     0     1     1  14.0       1.00       0.008750  
  15     1   1     0     2     2  14.0       0.0100     0.01000   
  15     2   1     0     1     1  14.0       0.0200     0.01000   
  15     3   1     0     1     1  14.0       0.0350     0.01500   
  15     4   1     0     1     1  14.1       0.0575     0.02250   
  15     5   1     0     1     1  14.1       0.0912     0.03375   
  15     6   1     0     1     1  14.1       0.141      0.05000   
  15     7   1     0     1     1  14.2       0.191      0.05000   
  15     8   1     0     1     1  14.2       0.241      0.05000   
  15     9   1     0     1     1  14.3       0.291      0.05000   
  15    10   1     0     1     1  14.3       0.341      0.05000   
  15    11   1     0     1     1  14.4       0.391      0.05000   
  15    12   1     0     1     1  14.4       0.441      0.05000   
  15    13   1     0     1     1  14.5       0.491      0.05000   
  15    14   1     0     1     1  14.5       0.541      0.05000   
  15    15   1     0     1     1  14.6       0.591      0.05000   
  15    16   1     0     1     1  14.6       0.641      0.05000   
  15    17   1     0     1     1  14.7       0.691      0.05000   
  15    18   1     0     1     1  14.7       0.741      0.05000   
  15    19   1     0     1     1  14.8       0.791      0.05000   
  15    20   1     0     1     1  14.8       0.841      0.05000   
  15    21   1     0     1     1  14.9       0.891      0.05000   
  15    22   1     0     1     1  14.9       0.941      0.05000   
  15    23   1     0     1     1  15.0       0.991      0.05000   
  15    24   1     0     1     1  15.0       1.00       0.008750  
  16     1   1     0     2     2  15.0       0.0100     0.01000   
  16     2   1     0     1     1  15.0       0.0200     0.01000   
  16     3   1     0     1     1  15.0       0.0350     0.01500   
  16     4   1     0     1     1  15.1       0.0575     0.02250   
  16     5   1     0     1     1  15.1       0.0912     0.03375   
  16     6   1     0     1     1  15.1       0.141      0.05000   
  16     7   1     0     1     1  15.2       0.191      0.05000   
  16     8   1     0     1     1  15.2       0.241      0.05000   
  16     9   1     0     1     1  15.3       0.291      0.05000   
  16    10   1     0     1     1  15.3       0.341      0.05000   
  16    11   1     0     1     1  15.4       0.391      0.05000   
  16    12   1     0     1     1  15.4       0.441      0.05000   
  16    13   1     0     1     1  15.5       0.491      0.05000   
  16    14   1     0     1     1  15.5       0.541      0.05000   
  16    15   1     0     1     1  15.6       0.591      0.05000   
  16    16   1     0     1     1  15.6       0.641      0.05000   
  16    17   1     0     1     1  15.7       0.691      0.05000   
  16    18   1     0     1     1  15.7       0.741      0.05000   
  16    19   1     0     1     1  15.8       0.791      0.05000   
  16    20   1     0     1     1  15.8       0.841      0.05000   
  16    21   1     0     1     1  15.9       0.891      0.05000   
  16    22   1     0     2     2  15.9       0.941      0.05000   
  16    23   1     0     2     2  16.0       0.991      0.05000   
  16    24   1     0     1     1  16.0       1.00       0.008750  
                          
 THE ANALYSIS HAS COMPLETED SUCCESSFULLY
