1

   Abaqus 6.12-1                                  Date 16-déc.-2016   Time 10:18:44
   For use by  under license from Dassault Systemes or its subsidiary.

                                                                                 
                                                                                 
 STEP    1     INCREMENT     1     STEP TIME    0.00    


                        S T E P       1     S T A T I C   A N A L Y S I S


                                                                                          

     AUTOMATIC TIME CONTROL WITH -
          A SUGGESTED INITIAL TIME INCREMENT OF                1.000E-02
          AND A TOTAL TIME PERIOD OF                            1.00    
          THE MINIMUM TIME INCREMENT ALLOWED IS                1.000E-06
          THE MAXIMUM TIME INCREMENT ALLOWED IS                5.000E-02

     LINEAR EQUATION SOLVER TYPE         DIRECT SPARSE

 CONVERGENCE TOLERANCE PARAMETERS FOR FORCE    
     CRITERION FOR RESIDUAL FORCE     FOR A NONLINEAR PROBLEM          5.000E-03
     CRITERION FOR DISP.    CORRECTION IN A NONLINEAR PROBLEM          1.000E-02
     INITIAL VALUE OF TIME AVERAGE FORCE                               1.000E-02
     AVERAGE FORCE     IS TIME AVERAGE FORCE    
     ALTERNATE CRIT. FOR RESIDUAL FORCE     FOR A NONLINEAR PROBLEM    2.000E-02
     CRITERION FOR ZERO FORCE     RELATIVE TO TIME AVRG. FORCE         1.000E-05
     CRITERION FOR RESIDUAL FORCE     WHEN THERE IS ZERO FLUX          1.000E-05
     CRITERION FOR DISP.    CORRECTION WHEN THERE IS ZERO FLUX         1.000E-03
     CRITERION FOR RESIDUAL FORCE     FOR A LINEAR INCREMENT           1.000E-08
     FIELD CONVERSION RATIO                                             1.00    
     CRITERION FOR ZERO FORCE     REL. TO TIME AVRG. MAX. FORCE        1.000E-05
     CRITERION FOR ZERO DISP.    RELATIVE TO CHARACTERISTIC LENGTH     1.000E-08

 CONVERGENCE TOLERANCE PARAMETERS FOR MOMENT   
     CRITERION FOR RESIDUAL MOMENT    FOR A NONLINEAR PROBLEM          5.000E-03
     CRITERION FOR ROTATION CORRECTION IN A NONLINEAR PROBLEM          1.000E-02
     INITIAL VALUE OF TIME AVERAGE MOMENT                              1.000E-02
     AVERAGE MOMENT    IS TIME AVERAGE MOMENT   
     ALTERNATE CRIT. FOR RESIDUAL MOMENT    FOR A NONLINEAR PROBLEM    2.000E-02
     CRITERION FOR ZERO MOMENT    RELATIVE TO TIME AVRG. MOMENT        1.000E-05
     CRITERION FOR RESIDUAL MOMENT    WHEN THERE IS ZERO FLUX          1.000E-05
     CRITERION FOR ROTATION CORRECTION WHEN THERE IS ZERO FLUX         1.000E-03
     CRITERION FOR RESIDUAL MOMENT    FOR A LINEAR INCREMENT           1.000E-08
     FIELD CONVERSION RATIO                                             1.00    
     CRITERION FOR ZERO MOMENT    REL. TO TIME AVRG. MAX. MOMENT       1.000E-05

     VOLUMETRIC STRAIN COMPATIBILITY TOLERANCE FOR HYBRID SOLIDS       1.000E-05
     AXIAL STRAIN COMPATIBILITY TOLERANCE FOR HYBRID BEAMS             1.000E-05
     TRANS. SHEAR STRAIN COMPATIBILITY TOLERANCE FOR HYBRID BEAMS      1.000E-05
     SOFT CONTACT CONSTRAINT COMPATIBILITY TOLERANCE FOR P>P0          5.000E-03
     SOFT CONTACT CONSTRAINT COMPATIBILITY TOLERANCE FOR P=0.0         0.100    
     CONTACT FORCE ERROR TOLERANCE FOR CONVERT SDI=YES                 1.00    
     DISPLACEMENT COMPATIBILITY TOLERANCE FOR DCOUP ELEMENTS           1.000E-05
     ROTATION COMPATIBILITY TOLERANCE FOR DCOUP ELEMENTS               1.000E-05

 EQUILIBRIUM WILL BE CHECKED FOR SEVERE DISCONTINUITY ITERATIONS

 TIME INCREMENTATION CONTROL PARAMETERS:
     FIRST EQUILIBRIUM ITERATION FOR CONSECUTIVE DIVERGENCE CHECK              4
     EQUILIBRIUM ITERATION AT WHICH LOG. CONVERGENCE RATE CHECK BEGINS         8
     EQUILIBRIUM ITERATION AFTER WHICH ALTERNATE RESIDUAL IS USED              9
     MAXIMUM EQUILIBRIUM ITERATIONS ALLOWED                                   16
     EQUILIBRIUM ITERATION COUNT FOR CUT-BACK IN NEXT INCREMENT               10
     MAXIMUM EQUILIB. ITERS IN TWO INCREMENTS FOR TIME INCREMENT INCREASE      4
     MAXIMUM ITERATIONS FOR SEVERE DISCONTINUITIES                            50
     MAXIMUM CUT-BACKS ALLOWED IN AN INCREMENT                                 5
     MAXIMUM DISCON. ITERS IN TWO INCREMENTS FOR TIME INCREMENT INCREASE      50
     MAXIMUM CONTACT AUGMENTATIONS FOR *SURFACE BEHAVIOR,AUGMENTED LAGRANGE   50
     CUT-BACK FACTOR AFTER DIVERGENCE                                 0.2500    
     CUT-BACK FACTOR FOR TOO SLOW CONVERGENCE                         0.5000    
     CUT-BACK FACTOR AFTER TOO MANY EQUILIBRIUM ITERATIONS            0.7500    
     CUT-BACK FACTOR AFTER TOO MANY SEVERE DISCONTINUITY ITERATIONS   0.2500    
     CUT-BACK FACTOR AFTER PROBLEMS IN ELEMENT ASSEMBLY               0.2500    
     INCREASE FACTOR AFTER TWO INCREMENTS THAT CONVERGE QUICKLY        1.500    
     MAX. TIME INCREMENT INCREASE FACTOR ALLOWED                       1.500    
     MAX. TIME INCREMENT INCREASE FACTOR ALLOWED (DYNAMICS)            1.250    
     MAX. TIME INCREMENT INCREASE FACTOR ALLOWED (DIFFUSION)           2.000    
     MINIMUM TIME INCREMENT RATIO FOR EXTRAPOLATION TO OCCUR          0.1000    
     MAX. RATIO OF TIME INCREMENT TO STABILITY LIMIT                   1.000    
     FRACTION OF STABILITY LIMIT FOR NEW TIME INCREMENT               0.9500    
     TIME INCREMENT INCREASE FACTOR BEFORE A TIME POINT                1.000    
     GLOBAL STABILIZATION CONTROL IS NOT USED

          PRINT OF INCREMENT NUMBER, TIME, ETC., EVERY    1  INCREMENTS

     THE MAXIMUM NUMBER OF INCREMENTS IN THIS STEP IS                     200

          LARGE DISPLACEMENT THEORY WILL BE USED

     LINEAR EXTRAPOLATION WILL BE USED

     CHARACTERISTIC ELEMENT LENGTH     5.811E-02

     DETAILS REGARDING ACTUAL SOLUTION WAVEFRONT REQUESTED

     DETAILED OUTPUT OF DIAGNOSTICS TO DATABASE REQUESTED

     PRINT OF INCREMENT NUMBER, TIME, ETC., TO THE MESSAGE FILE EVERY     1  INCREMENTS

     EQUATIONS ARE BEING REORDERED TO MINIMIZE WAVEFRONT

     COLLECTING MODEL CONSTRAINT INFORMATION FOR OVERCONSTRAINT CHECKS

     COLLECTING STEP CONSTRAINT INFORMATION FOR OVERCONSTRAINT CHECKS


  INCREMENT     1 STARTS. ATTEMPT NUMBER  1, TIME INCREMENT  1.000E-02

  NUMBER OF EQUATIONS =     1256     NUMBER OF FLOATING PT. OPERATIONS =  8.20E+06

     CHECK POINT   START OF SOLVER    

     CHECK POINT  END OF SOLVER       

       ELAPSED USER TIME (SEC)      =   0.0000    
       ELAPSED SYSTEM TIME (SEC)    =   0.0000    
       ELAPSED TOTAL CPU TIME (SEC) =   0.0000    
       ELAPSED WALLCLOCK TIME (SEC) =          0

               CONVERGENCE CHECKS FOR EQUILIBRIUM ITERATION     1


 AVERAGE FORCE                       5.75       TIME AVG. FORCE        5.75    
 LARGEST RESIDUAL FORCE              21.3       AT NODE        192   DOF  2
   INSTANCE: Instance A                                                                      
 LARGEST INCREMENT OF DISP.         1.132E-03   AT NODE        114   DOF  3
   INSTANCE: Instance A                                                                      
 LARGEST CORRECTION TO DISP.        1.132E-03   AT NODE        114   DOF  3
   INSTANCE: Instance A                                                                      
          FORCE     EQUILIBRIUM NOT ACHIEVED WITHIN TOLERANCE.

 AVERAGE MOMENT                     5.902E-02   TIME AVG. MOMENT      5.902E-02
 LARGEST RESIDUAL MOMENT            7.548E-02   AT NODE        173   DOF  4
   INSTANCE: Instance A                                                                      
 LARGEST INCREMENT OF ROTATION      5.445E-03   AT NODE          1   DOF  6
   INSTANCE: Instance A                                                                      
 LARGEST CORRECTION TO ROTATION     5.445E-03   AT NODE          1   DOF  6
   INSTANCE: Instance A                                                                      
          MOMENT    EQUILIBRIUM NOT ACHIEVED WITHIN TOLERANCE.

 COMPATIBILITY ERRORS:
    TYPE                NUMBER EXCEEDING TOLERANCE  MAXIMUM ERROR        IN ELEMENT
 BEAM AXIAL                          0                1.627E-07                182
   INSTANCE: Instance A                                                                      

  NUMBER OF EQUATIONS =     1256     NUMBER OF FLOATING PT. OPERATIONS =  8.20E+06

     CHECK POINT   START OF SOLVER    

     CHECK POINT  END OF SOLVER       

       ELAPSED USER TIME (SEC)      =   0.0000    
       ELAPSED SYSTEM TIME (SEC)    =   0.0000    
       ELAPSED TOTAL CPU TIME (SEC) =   0.0000    
       ELAPSED WALLCLOCK TIME (SEC) =          0

               CONVERGENCE CHECKS FOR EQUILIBRIUM ITERATION     2


 AVERAGE FORCE                       5.35       TIME AVG. FORCE        5.35    
 LARGEST RESIDUAL FORCE            -0.146       AT NODE         57   DOF  2
   INSTANCE: Instance A                                                                      
 LARGEST INCREMENT OF DISP.         9.516E-04   AT NODE        114   DOF  3
   INSTANCE: Instance A                                                                      
 LARGEST CORRECTION TO DISP.       -1.801E-04   AT NODE        114   DOF  3
   INSTANCE: Instance A                                                                      
          FORCE     EQUILIBRIUM NOT ACHIEVED WITHIN TOLERANCE.

 AVERAGE MOMENT                     5.812E-02   TIME AVG. MOMENT      5.812E-02
 LARGEST RESIDUAL MOMENT           -9.005E-04   AT NODE        189   DOF  5
   INSTANCE: Instance A                                                                      
 LARGEST INCREMENT OF ROTATION      5.450E-03   AT NODE          1   DOF  6
   INSTANCE: Instance A                                                                      
 LARGEST CORRECTION TO ROTATION    -3.068E-04   AT NODE         80   DOF  4
   INSTANCE: Instance A                                                                      
          MOMENT    EQUILIBRIUM NOT ACHIEVED WITHIN TOLERANCE.

 COMPATIBILITY ERRORS:
    TYPE                NUMBER EXCEEDING TOLERANCE  MAXIMUM ERROR        IN ELEMENT
 BEAM AXIAL                          0                6.802E-09                182
   INSTANCE: Instance A                                                                      

  NUMBER OF EQUATIONS =     1256     NUMBER OF FLOATING PT. OPERATIONS =  8.20E+06

     CHECK POINT   START OF SOLVER    

     CHECK POINT  END OF SOLVER       

       ELAPSED USER TIME (SEC)      =   0.0000    
       ELAPSED SYSTEM TIME (SEC)    =   0.0000    
       ELAPSED TOTAL CPU TIME (SEC) =   0.0000    
       ELAPSED WALLCLOCK TIME (SEC) =          0

               CONVERGENCE CHECKS FOR EQUILIBRIUM ITERATION     3


 AVERAGE FORCE                       5.34       TIME AVG. FORCE        5.34    
 LARGEST RESIDUAL FORCE            -7.809E-04   AT NODE        190   DOF  2
   INSTANCE: Instance A                                                                      
 LARGEST INCREMENT OF DISP.         9.386E-04   AT NODE        114   DOF  3
   INSTANCE: Instance A                                                                      
 LARGEST CORRECTION TO DISP.       -1.301E-05   AT NODE        114   DOF  3
   INSTANCE: Instance A                                                                      
 ESTIMATE OF DISP.    CORRECTION   -6.951E-08
 FORCE     EQUILIB. ACCEPTED BASED ON SMALL RESIDUAL AND ESTIMATED CORRECTION

 AVERAGE MOMENT                     5.809E-02   TIME AVG. MOMENT      5.809E-02
 LARGEST RESIDUAL MOMENT            4.786E-06   AT NODE         37   DOF  5
   INSTANCE: Instance A                                                                      
 LARGEST INCREMENT OF ROTATION      5.451E-03   AT NODE          1   DOF  6
   INSTANCE: Instance A                                                                      
 LARGEST CORRECTION TO ROTATION    -2.282E-05   AT NODE         80   DOF  4
   INSTANCE: Instance A                                                                      
          THE MOMENT    EQUILIBRIUM EQUATIONS HAVE CONVERGED

 COMPATIBILITY ERRORS:
    TYPE                NUMBER EXCEEDING TOLERANCE  MAXIMUM ERROR        IN ELEMENT
 BEAM AXIAL                          0                3.846E-11                182
   INSTANCE: Instance A                                                                      

 ITERATION SUMMARY FOR THE INCREMENT:   3 TOTAL ITERATIONS, OF WHICH
   0 ARE SEVERE DISCONTINUITY ITERATIONS AND  3 ARE EQUILIBRIUM ITERATIONS.

 TIME INCREMENT COMPLETED  1.000E-02,  FRACTION OF STEP COMPLETED  1.000E-02
 STEP TIME COMPLETED       1.000E-02,  TOTAL TIME COMPLETED        1.000E-02


  INCREMENT     2 STARTS. ATTEMPT NUMBER  1, TIME INCREMENT  1.000E-02

  NUMBER OF EQUATIONS =     1256     NUMBER OF FLOATING PT. OPERATIONS =  8.20E+06

     CHECK POINT   START OF SOLVER    

     CHECK POINT  END OF SOLVER       

       ELAPSED USER TIME (SEC)      =   0.0000    
       ELAPSED SYSTEM TIME (SEC)    =   0.0000    
       ELAPSED TOTAL CPU TIME (SEC) =   0.0000    
       ELAPSED WALLCLOCK TIME (SEC) =          0

               CONVERGENCE CHECKS FOR EQUILIBRIUM ITERATION     1


 AVERAGE FORCE                       10.7       TIME AVG. FORCE        8.03    
 LARGEST RESIDUAL FORCE             1.586E-03   AT NODE         20   DOF  3
   INSTANCE: Instance A                                                                      
 LARGEST INCREMENT OF DISP.         9.348E-04   AT NODE        114   DOF  3
   INSTANCE: Instance A                                                                      
 LARGEST CORRECTION TO DISP.        8.418E-06   AT NODE          1   DOF  2
   INSTANCE: Instance A                                                                      
          THE FORCE     EQUILIBRIUM EQUATIONS HAVE CONVERGED

 AVERAGE MOMENT                     0.116       TIME AVG. MOMENT      8.727E-02
 LARGEST RESIDUAL MOMENT           -6.176E-05   AT NODE          1   DOF  6
   INSTANCE: Instance A                                                                      
 LARGEST INCREMENT OF ROTATION     -5.428E-03   AT NODE        191   DOF  6
   INSTANCE: Instance A                                                                      
 LARGEST CORRECTION TO ROTATION     4.122E-05   AT NODE          1   DOF  4
   INSTANCE: Instance A                                                                      
          THE MOMENT    EQUILIBRIUM EQUATIONS HAVE CONVERGED

 COMPATIBILITY ERRORS:
    TYPE                NUMBER EXCEEDING TOLERANCE  MAXIMUM ERROR        IN ELEMENT
 BEAM AXIAL                          0                7.075E-11                181
   INSTANCE: Instance A                                                                      
          TIME INCREMENT MAY NOW INCREASE TO    1.500E-02

 ITERATION SUMMARY FOR THE INCREMENT:   1 TOTAL ITERATIONS, OF WHICH
   0 ARE SEVERE DISCONTINUITY ITERATIONS AND  1 ARE EQUILIBRIUM ITERATIONS.

 TIME INCREMENT COMPLETED  1.000E-02,  FRACTION OF STEP COMPLETED  2.000E-02
 STEP TIME COMPLETED       2.000E-02,  TOTAL TIME COMPLETED        2.000E-02


  INCREMENT     3 STARTS. ATTEMPT NUMBER  1, TIME INCREMENT  1.500E-02

  NUMBER OF EQUATIONS =     1256     NUMBER OF FLOATING PT. OPERATIONS =  8.20E+06

     CHECK POINT   START OF SOLVER    

     CHECK POINT  END OF SOLVER       

       ELAPSED USER TIME (SEC)      =   0.0000    
       ELAPSED SYSTEM TIME (SEC)    =   0.0000    
       ELAPSED TOTAL CPU TIME (SEC) =   0.0000    
       ELAPSED WALLCLOCK TIME (SEC) =          0

               CONVERGENCE CHECKS FOR EQUILIBRIUM ITERATION     1


 AVERAGE FORCE                       18.6       TIME AVG. FORCE        11.6    
 LARGEST RESIDUAL FORCE             4.195E-03   AT NODE        172   DOF  3
   INSTANCE: Instance A                                                                      
 LARGEST INCREMENT OF DISP.         1.393E-03   AT NODE        114   DOF  3
   INSTANCE: Instance A                                                                      
 LARGEST CORRECTION TO DISP.        1.504E-05   AT NODE        191   DOF  2
   INSTANCE: Instance A                                                                      
 ESTIMATE OF DISP.    CORRECTION    7.447E-10
 FORCE     EQUILIB. ACCEPTED BASED ON SMALL RESIDUAL AND ESTIMATED CORRECTION

 AVERAGE MOMENT                     0.203       TIME AVG. MOMENT      0.126    
 LARGEST RESIDUAL MOMENT           -1.985E-04   AT NODE          1   DOF  6
   INSTANCE: Instance A                                                                      
 LARGEST INCREMENT OF ROTATION      8.079E-03   AT NODE          1   DOF  6
   INSTANCE: Instance A                                                                      
 LARGEST CORRECTION TO ROTATION     6.930E-05   AT NODE        191   DOF  4
   INSTANCE: Instance A                                                                      
          THE MOMENT    EQUILIBRIUM EQUATIONS HAVE CONVERGED

 COMPATIBILITY ERRORS:
    TYPE                NUMBER EXCEEDING TOLERANCE  MAXIMUM ERROR        IN ELEMENT
 BEAM AXIAL                          0                2.050E-10                182
   INSTANCE: Instance A                                                                      
          TIME INCREMENT MAY NOW INCREASE TO    2.250E-02

 ITERATION SUMMARY FOR THE INCREMENT:   1 TOTAL ITERATIONS, OF WHICH
   0 ARE SEVERE DISCONTINUITY ITERATIONS AND  1 ARE EQUILIBRIUM ITERATIONS.

 TIME INCREMENT COMPLETED  1.500E-02,  FRACTION OF STEP COMPLETED  3.500E-02
 STEP TIME COMPLETED       3.500E-02,  TOTAL TIME COMPLETED        3.500E-02


  INCREMENT     4 STARTS. ATTEMPT NUMBER  1, TIME INCREMENT  2.250E-02

  NUMBER OF EQUATIONS =     1256     NUMBER OF FLOATING PT. OPERATIONS =  8.20E+06

     CHECK POINT   START OF SOLVER    

     CHECK POINT  END OF SOLVER       

       ELAPSED USER TIME (SEC)      =   0.0000    
       ELAPSED SYSTEM TIME (SEC)    =   0.0000    
       ELAPSED TOTAL CPU TIME (SEC) =   0.0000    
       ELAPSED WALLCLOCK TIME (SEC) =          0

               CONVERGENCE CHECKS FOR EQUILIBRIUM ITERATION     1


 AVERAGE FORCE                       30.2       TIME AVG. FORCE        16.2    
 LARGEST RESIDUAL FORCE             2.098E-02   AT NODE        172   DOF  3
   INSTANCE: Instance A                                                                      
 LARGEST INCREMENT OF DISP.         2.070E-03   AT NODE        114   DOF  3
   INSTANCE: Instance A                                                                      
 LARGEST CORRECTION TO DISP.        3.305E-05   AT NODE        210   DOF  2
   INSTANCE: Instance A                                                                      
 ESTIMATE OF DISP.    CORRECTION    3.680E-09
 FORCE     EQUILIB. ACCEPTED BASED ON SMALL RESIDUAL AND ESTIMATED CORRECTION

 AVERAGE MOMENT                     0.331       TIME AVG. MOMENT      0.177    
 LARGEST RESIDUAL MOMENT           -7.565E-04   AT NODE          1   DOF  6
   INSTANCE: Instance A                                                                      
 LARGEST INCREMENT OF ROTATION     -1.199E-02   AT NODE        191   DOF  6
   INSTANCE: Instance A                                                                      
 LARGEST CORRECTION TO ROTATION     1.508E-04   AT NODE        191   DOF  4
   INSTANCE: Instance A                                                                      
 ESTIMATE OF ROTATION CORRECTION    1.629E-07
 MOMENT    EQUILIB. ACCEPTED BASED ON SMALL RESIDUAL AND ESTIMATED CORRECTION

 COMPATIBILITY ERRORS:
    TYPE                NUMBER EXCEEDING TOLERANCE  MAXIMUM ERROR        IN ELEMENT
 BEAM AXIAL                          0                1.000E-09                181
   INSTANCE: Instance A                                                                      
          TIME INCREMENT MAY NOW INCREASE TO    3.375E-02

 ITERATION SUMMARY FOR THE INCREMENT:   1 TOTAL ITERATIONS, OF WHICH
   0 ARE SEVERE DISCONTINUITY ITERATIONS AND  1 ARE EQUILIBRIUM ITERATIONS.

 TIME INCREMENT COMPLETED  2.250E-02,  FRACTION OF STEP COMPLETED  5.750E-02
 STEP TIME COMPLETED       5.750E-02,  TOTAL TIME COMPLETED        5.750E-02


  INCREMENT     5 STARTS. ATTEMPT NUMBER  1, TIME INCREMENT  3.375E-02

  NUMBER OF EQUATIONS =     1256     NUMBER OF FLOATING PT. OPERATIONS =  8.20E+06

     CHECK POINT   START OF SOLVER    

     CHECK POINT  END OF SOLVER       

       ELAPSED USER TIME (SEC)      =   0.0000    
       ELAPSED SYSTEM TIME (SEC)    =   0.0000    
       ELAPSED TOTAL CPU TIME (SEC) =   0.0000    
       ELAPSED WALLCLOCK TIME (SEC) =          0

               CONVERGENCE CHECKS FOR EQUILIBRIUM ITERATION     1


 AVERAGE FORCE                       47.1       TIME AVG. FORCE        22.4    
 LARGEST RESIDUAL FORCE             9.970E-02   AT NODE        172   DOF  3
   INSTANCE: Instance A                                                                      
 LARGEST INCREMENT OF DISP.         3.063E-03   AT NODE        114   DOF  3
   INSTANCE: Instance A                                                                      
 LARGEST CORRECTION TO DISP.        7.166E-05   AT NODE        191   DOF  2
   INSTANCE: Instance A                                                                      
 ESTIMATE OF DISP.    CORRECTION    1.716E-08
 FORCE     EQUILIB. ACCEPTED BASED ON SMALL RESIDUAL AND ESTIMATED CORRECTION

 AVERAGE MOMENT                     0.518       TIME AVG. MOMENT      0.245    
 LARGEST RESIDUAL MOMENT           -2.870E-03   AT NODE          1   DOF  6
   INSTANCE: Instance A                                                                      
 LARGEST INCREMENT OF ROTATION     -1.769E-02   AT NODE        191   DOF  6
   INSTANCE: Instance A                                                                      
 LARGEST CORRECTION TO ROTATION     3.284E-04   AT NODE        191   DOF  4
   INSTANCE: Instance A                                                                      
          MOMENT    EQUILIBRIUM NOT ACHIEVED WITHIN TOLERANCE.

 COMPATIBILITY ERRORS:
    TYPE                NUMBER EXCEEDING TOLERANCE  MAXIMUM ERROR        IN ELEMENT
 BEAM AXIAL                          0                4.771E-09                181
   INSTANCE: Instance A                                                                      

  NUMBER OF EQUATIONS =     1256     NUMBER OF FLOATING PT. OPERATIONS =  8.20E+06

     CHECK POINT   START OF SOLVER    

     CHECK POINT  END OF SOLVER       

       ELAPSED USER TIME (SEC)      =   0.0000    
       ELAPSED SYSTEM TIME (SEC)    =   0.0000    
       ELAPSED TOTAL CPU TIME (SEC) =   0.0000    
       ELAPSED WALLCLOCK TIME (SEC) =          0

               CONVERGENCE CHECKS FOR EQUILIBRIUM ITERATION     2


 AVERAGE FORCE                       47.3       TIME AVG. FORCE        22.4    
 LARGEST RESIDUAL FORCE            -2.643E-04   AT NODE         57   DOF  2
   INSTANCE: Instance A                                                                      
 LARGEST INCREMENT OF DISP.         3.071E-03   AT NODE        114   DOF  3
   INSTANCE: Instance A                                                                      
 LARGEST CORRECTION TO DISP.        7.647E-06   AT NODE        114   DOF  3
   INSTANCE: Instance A                                                                      
          THE FORCE     EQUILIBRIUM EQUATIONS HAVE CONVERGED

 AVERAGE MOMENT                     0.521       TIME AVG. MOMENT      0.246    
 LARGEST RESIDUAL MOMENT           -4.333E-06   AT NODE        192   DOF  5
   INSTANCE: Instance A                                                                      
 LARGEST INCREMENT OF ROTATION      1.768E-02   AT NODE          1   DOF  6
   INSTANCE: Instance A                                                                      
 LARGEST CORRECTION TO ROTATION     1.639E-05   AT NODE          1   DOF  4
   INSTANCE: Instance A                                                                      
          THE MOMENT    EQUILIBRIUM EQUATIONS HAVE CONVERGED

 COMPATIBILITY ERRORS:
    TYPE                NUMBER EXCEEDING TOLERANCE  MAXIMUM ERROR        IN ELEMENT
 BEAM AXIAL                          0                1.251E-11                182
   INSTANCE: Instance A                                                                      
          TIME INCREMENT MAY NOW INCREASE TO    5.000E-02

 ITERATION SUMMARY FOR THE INCREMENT:   2 TOTAL ITERATIONS, OF WHICH
   0 ARE SEVERE DISCONTINUITY ITERATIONS AND  2 ARE EQUILIBRIUM ITERATIONS.

 TIME INCREMENT COMPLETED  3.375E-02,  FRACTION OF STEP COMPLETED  9.125E-02
 STEP TIME COMPLETED       9.125E-02,  TOTAL TIME COMPLETED        9.125E-02


  INCREMENT     6 STARTS. ATTEMPT NUMBER  1, TIME INCREMENT  5.000E-02

  NUMBER OF EQUATIONS =     1256     NUMBER OF FLOATING PT. OPERATIONS =  8.20E+06

     CHECK POINT   START OF SOLVER    

     CHECK POINT  END OF SOLVER       

       ELAPSED USER TIME (SEC)      =   0.0000    
       ELAPSED SYSTEM TIME (SEC)    =   0.0000    
       ELAPSED TOTAL CPU TIME (SEC) =   0.0000    
       ELAPSED WALLCLOCK TIME (SEC) =          0

               CONVERGENCE CHECKS FOR EQUILIBRIUM ITERATION     1


 AVERAGE FORCE                       71.2       TIME AVG. FORCE        30.6    
 LARGEST RESIDUAL FORCE             0.389       AT NODE         20   DOF  3
   INSTANCE: Instance A                                                                      
 LARGEST INCREMENT OF DISP.         4.448E-03   AT NODE        114   DOF  3
   INSTANCE: Instance A                                                                      
 LARGEST CORRECTION TO DISP.        1.475E-04   AT NODE          1   DOF  2
   INSTANCE: Instance A                                                                      
          FORCE     EQUILIBRIUM NOT ACHIEVED WITHIN TOLERANCE.

 AVERAGE MOMENT                     0.787       TIME AVG. MOMENT      0.336    
 LARGEST RESIDUAL MOMENT           -1.067E-02   AT NODE         20   DOF  6
   INSTANCE: Instance A                                                                      
 LARGEST INCREMENT OF ROTATION      2.561E-02   AT NODE          1   DOF  6
   INSTANCE: Instance A                                                                      
 LARGEST CORRECTION TO ROTATION     6.515E-04   AT NODE        191   DOF  4
   INSTANCE: Instance A                                                                      
          MOMENT    EQUILIBRIUM NOT ACHIEVED WITHIN TOLERANCE.

 COMPATIBILITY ERRORS:
    TYPE                NUMBER EXCEEDING TOLERANCE  MAXIMUM ERROR        IN ELEMENT
 BEAM AXIAL                          0                1.918E-08                181
   INSTANCE: Instance A                                                                      

  NUMBER OF EQUATIONS =     1256     NUMBER OF FLOATING PT. OPERATIONS =  8.20E+06

     CHECK POINT   START OF SOLVER    

     CHECK POINT  END OF SOLVER       

       ELAPSED USER TIME (SEC)      =   0.0000    
       ELAPSED SYSTEM TIME (SEC)    =   0.0000    
       ELAPSED TOTAL CPU TIME (SEC) =   0.0000    
       ELAPSED WALLCLOCK TIME (SEC) =          0

               CONVERGENCE CHECKS FOR EQUILIBRIUM ITERATION     2


 AVERAGE FORCE                       71.7       TIME AVG. FORCE        30.6    
 LARGEST RESIDUAL FORCE            -2.528E-03   AT NODE         57   DOF  2
   INSTANCE: Instance A                                                                      
 LARGEST INCREMENT OF DISP.         4.472E-03   AT NODE        114   DOF  3
   INSTANCE: Instance A                                                                      
 LARGEST CORRECTION TO DISP.        2.368E-05   AT NODE        114   DOF  3
   INSTANCE: Instance A                                                                      
          THE FORCE     EQUILIBRIUM EQUATIONS HAVE CONVERGED

 AVERAGE MOMENT                     0.793       TIME AVG. MOMENT      0.337    
 LARGEST RESIDUAL MOMENT            2.244E-05   AT NODE          2   DOF  5
   INSTANCE: Instance A                                                                      
 LARGEST INCREMENT OF ROTATION      2.558E-02   AT NODE          1   DOF  6
   INSTANCE: Instance A                                                                      
 LARGEST CORRECTION TO ROTATION     5.050E-05   AT NODE        191   DOF  4
   INSTANCE: Instance A                                                                      
          THE MOMENT    EQUILIBRIUM EQUATIONS HAVE CONVERGED

 COMPATIBILITY ERRORS:
    TYPE                NUMBER EXCEEDING TOLERANCE  MAXIMUM ERROR        IN ELEMENT
 BEAM AXIAL                          0                1.205E-10                182
   INSTANCE: Instance A                                                                      

 ITERATION SUMMARY FOR THE INCREMENT:   2 TOTAL ITERATIONS, OF WHICH
   0 ARE SEVERE DISCONTINUITY ITERATIONS AND  2 ARE EQUILIBRIUM ITERATIONS.

 TIME INCREMENT COMPLETED  5.000E-02,  FRACTION OF STEP COMPLETED  0.141    
 STEP TIME COMPLETED       0.141    ,  TOTAL TIME COMPLETED        0.141    


  INCREMENT     7 STARTS. ATTEMPT NUMBER  1, TIME INCREMENT  5.000E-02

  NUMBER OF EQUATIONS =     1256     NUMBER OF FLOATING PT. OPERATIONS =  8.20E+06

     CHECK POINT   START OF SOLVER    

     CHECK POINT  END OF SOLVER       

       ELAPSED USER TIME (SEC)      =   0.0000    
       ELAPSED SYSTEM TIME (SEC)    =   0.0000    
       ELAPSED TOTAL CPU TIME (SEC) =   0.0000    
       ELAPSED WALLCLOCK TIME (SEC) =          0

               CONVERGENCE CHECKS FOR EQUILIBRIUM ITERATION     1


 AVERAGE FORCE                       94.6       TIME AVG. FORCE        39.8    
 LARGEST RESIDUAL FORCE             0.513       AT NODE        172   DOF  3
   INSTANCE: Instance A                                                                      
 LARGEST INCREMENT OF DISP.         4.368E-03   AT NODE        114   DOF  3
   INSTANCE: Instance A                                                                      
 LARGEST CORRECTION TO DISP.        1.656E-04   AT NODE        210   DOF  2
   INSTANCE: Instance A                                                                      
          FORCE     EQUILIBRIUM NOT ACHIEVED WITHIN TOLERANCE.

 AVERAGE MOMENT                      1.05       TIME AVG. MOMENT      0.439    
 LARGEST RESIDUAL MOMENT            1.443E-02   AT NODE        172   DOF  6
   INSTANCE: Instance A                                                                      
 LARGEST INCREMENT OF ROTATION     -2.494E-02   AT NODE        191   DOF  6
   INSTANCE: Instance A                                                                      
 LARGEST CORRECTION TO ROTATION     7.475E-04   AT NODE          1   DOF  4
   INSTANCE: Instance A                                                                      
          MOMENT    EQUILIBRIUM NOT ACHIEVED WITHIN TOLERANCE.

 COMPATIBILITY ERRORS:
    TYPE                NUMBER EXCEEDING TOLERANCE  MAXIMUM ERROR        IN ELEMENT
 BEAM AXIAL                          0                2.547E-08                182
   INSTANCE: Instance A                                                                      

  NUMBER OF EQUATIONS =     1256     NUMBER OF FLOATING PT. OPERATIONS =  8.20E+06

     CHECK POINT   START OF SOLVER    

     CHECK POINT  END OF SOLVER       

       ELAPSED USER TIME (SEC)      =   0.0000    
       ELAPSED SYSTEM TIME (SEC)    =   0.0000    
       ELAPSED TOTAL CPU TIME (SEC) =   0.0000    
       ELAPSED WALLCLOCK TIME (SEC) =          0

               CONVERGENCE CHECKS FOR EQUILIBRIUM ITERATION     2


 AVERAGE FORCE                       95.1       TIME AVG. FORCE        39.9    
 LARGEST RESIDUAL FORCE            -3.776E-03   AT NODE        171   DOF  2
   INSTANCE: Instance A                                                                      
 LARGEST INCREMENT OF DISP.         4.397E-03   AT NODE        114   DOF  3
   INSTANCE: Instance A                                                                      
 LARGEST CORRECTION TO DISP.        2.894E-05   AT NODE        114   DOF  3
   INSTANCE: Instance A                                                                      
          THE FORCE     EQUILIBRIUM EQUATIONS HAVE CONVERGED

 AVERAGE MOMENT                      1.06       TIME AVG. MOMENT      0.440    
 LARGEST RESIDUAL MOMENT           -3.871E-05   AT NODE        192   DOF  5
   INSTANCE: Instance A                                                                      
 LARGEST INCREMENT OF ROTATION     -2.489E-02   AT NODE        191   DOF  6
   INSTANCE: Instance A                                                                      
 LARGEST CORRECTION TO ROTATION     6.332E-05   AT NODE          1   DOF  4
   INSTANCE: Instance A                                                                      
          THE MOMENT    EQUILIBRIUM EQUATIONS HAVE CONVERGED

 COMPATIBILITY ERRORS:
    TYPE                NUMBER EXCEEDING TOLERANCE  MAXIMUM ERROR        IN ELEMENT
 BEAM AXIAL                          0                1.771E-10                181
   INSTANCE: Instance A                                                                      

 ITERATION SUMMARY FOR THE INCREMENT:   2 TOTAL ITERATIONS, OF WHICH
   0 ARE SEVERE DISCONTINUITY ITERATIONS AND  2 ARE EQUILIBRIUM ITERATIONS.

 TIME INCREMENT COMPLETED  5.000E-02,  FRACTION OF STEP COMPLETED  0.191    
 STEP TIME COMPLETED       0.191    ,  TOTAL TIME COMPLETED        0.191    


  INCREMENT     8 STARTS. ATTEMPT NUMBER  1, TIME INCREMENT  5.000E-02

  NUMBER OF EQUATIONS =     1256     NUMBER OF FLOATING PT. OPERATIONS =  8.20E+06

     CHECK POINT   START OF SOLVER    

     CHECK POINT  END OF SOLVER       

       ELAPSED USER TIME (SEC)      =   0.0000    
       ELAPSED SYSTEM TIME (SEC)    =   0.0000    
       ELAPSED TOTAL CPU TIME (SEC) =   0.0000    
       ELAPSED WALLCLOCK TIME (SEC) =          0

               CONVERGENCE CHECKS FOR EQUILIBRIUM ITERATION     1


 AVERAGE FORCE                       117.       TIME AVG. FORCE        49.5    
 LARGEST RESIDUAL FORCE             0.450       AT NODE         20   DOF  3
   INSTANCE: Instance A                                                                      
 LARGEST INCREMENT OF DISP.         4.305E-03   AT NODE        114   DOF  3
   INSTANCE: Instance A                                                                      
 LARGEST CORRECTION TO DISP.        1.539E-04   AT NODE        212   DOF  2
   INSTANCE: Instance A                                                                      
          FORCE     EQUILIBRIUM NOT ACHIEVED WITHIN TOLERANCE.

 AVERAGE MOMENT                      1.31       TIME AVG. MOMENT      0.549    
 LARGEST RESIDUAL MOMENT            1.457E-02   AT NODE        191   DOF  6
   INSTANCE: Instance A                                                                      
 LARGEST INCREMENT OF ROTATION      2.427E-02   AT NODE          1   DOF  6
   INSTANCE: Instance A                                                                      
 LARGEST CORRECTION TO ROTATION     6.999E-04   AT NODE        191   DOF  4
   INSTANCE: Instance A                                                                      
          MOMENT    EQUILIBRIUM NOT ACHIEVED WITHIN TOLERANCE.

 COMPATIBILITY ERRORS:
    TYPE                NUMBER EXCEEDING TOLERANCE  MAXIMUM ERROR        IN ELEMENT
 BEAM AXIAL                          0                2.274E-08                182
   INSTANCE: Instance A                                                                      

  NUMBER OF EQUATIONS =     1256     NUMBER OF FLOATING PT. OPERATIONS =  8.20E+06

     CHECK POINT   START OF SOLVER    

     CHECK POINT  END OF SOLVER       

       ELAPSED USER TIME (SEC)      =   0.0000    
       ELAPSED SYSTEM TIME (SEC)    =   0.0000    
       ELAPSED TOTAL CPU TIME (SEC) =   0.0000    
       ELAPSED WALLCLOCK TIME (SEC) =          0

               CONVERGENCE CHECKS FOR EQUILIBRIUM ITERATION     2


 AVERAGE FORCE                       118.       TIME AVG. FORCE        49.6    
 LARGEST RESIDUAL FORCE            -3.175E-03   AT NODE        171   DOF  2
   INSTANCE: Instance A                                                                      
 LARGEST INCREMENT OF DISP.         4.331E-03   AT NODE        114   DOF  3
   INSTANCE: Instance A                                                                      
 LARGEST CORRECTION TO DISP.        2.652E-05   AT NODE        114   DOF  3
   INSTANCE: Instance A                                                                      
          THE FORCE     EQUILIBRIUM EQUATIONS HAVE CONVERGED

 AVERAGE MOMENT                      1.32       TIME AVG. MOMENT      0.550    
 LARGEST RESIDUAL MOMENT            4.764E-05   AT NODE          2   DOF  5
   INSTANCE: Instance A                                                                      
 LARGEST INCREMENT OF ROTATION      2.422E-02   AT NODE          1   DOF  6
   INSTANCE: Instance A                                                                      
 LARGEST CORRECTION TO ROTATION     6.118E-05   AT NODE        191   DOF  4
   INSTANCE: Instance A                                                                      
          THE MOMENT    EQUILIBRIUM EQUATIONS HAVE CONVERGED

 COMPATIBILITY ERRORS:
    TYPE                NUMBER EXCEEDING TOLERANCE  MAXIMUM ERROR        IN ELEMENT
 BEAM AXIAL                          0                1.444E-10                181
   INSTANCE: Instance A                                                                      

 ITERATION SUMMARY FOR THE INCREMENT:   2 TOTAL ITERATIONS, OF WHICH
   0 ARE SEVERE DISCONTINUITY ITERATIONS AND  2 ARE EQUILIBRIUM ITERATIONS.

 TIME INCREMENT COMPLETED  5.000E-02,  FRACTION OF STEP COMPLETED  0.241    
 STEP TIME COMPLETED       0.241    ,  TOTAL TIME COMPLETED        0.241    


  INCREMENT     9 STARTS. ATTEMPT NUMBER  1, TIME INCREMENT  5.000E-02

  NUMBER OF EQUATIONS =     1256     NUMBER OF FLOATING PT. OPERATIONS =  8.20E+06

     CHECK POINT   START OF SOLVER    

     CHECK POINT  END OF SOLVER       

       ELAPSED USER TIME (SEC)      =   0.0000    
       ELAPSED SYSTEM TIME (SEC)    =   0.0000    
       ELAPSED TOTAL CPU TIME (SEC) =   0.0000    
       ELAPSED WALLCLOCK TIME (SEC) =          0

               CONVERGENCE CHECKS FOR EQUILIBRIUM ITERATION     1


 AVERAGE FORCE                       139.       TIME AVG. FORCE        59.5    
 LARGEST RESIDUAL FORCE             0.401       AT NODE         20   DOF  3
   INSTANCE: Instance A                                                                      
 LARGEST INCREMENT OF DISP.         4.250E-03   AT NODE        114   DOF  3
   INSTANCE: Instance A                                                                      
 LARGEST CORRECTION TO DISP.        1.435E-04   AT NODE        191   DOF  2
   INSTANCE: Instance A                                                                      
          FORCE     EQUILIBRIUM NOT ACHIEVED WITHIN TOLERANCE.

 AVERAGE MOMENT                      1.56       TIME AVG. MOMENT      0.662    
 LARGEST RESIDUAL MOMENT            1.479E-02   AT NODE        191   DOF  6
   INSTANCE: Instance A                                                                      
 LARGEST INCREMENT OF ROTATION      2.364E-02   AT NODE          1   DOF  6
   INSTANCE: Instance A                                                                      
 LARGEST CORRECTION TO ROTATION     6.584E-04   AT NODE          1   DOF  4
   INSTANCE: Instance A                                                                      
          MOMENT    EQUILIBRIUM NOT ACHIEVED WITHIN TOLERANCE.

 COMPATIBILITY ERRORS:
    TYPE                NUMBER EXCEEDING TOLERANCE  MAXIMUM ERROR        IN ELEMENT
 BEAM AXIAL                          0                2.047E-08                182
   INSTANCE: Instance A                                                                      

  NUMBER OF EQUATIONS =     1256     NUMBER OF FLOATING PT. OPERATIONS =  8.20E+06

     CHECK POINT   START OF SOLVER    

     CHECK POINT  END OF SOLVER       

       ELAPSED USER TIME (SEC)      =   0.0000    
       ELAPSED SYSTEM TIME (SEC)    =   0.0000    
       ELAPSED TOTAL CPU TIME (SEC) =   0.0000    
       ELAPSED WALLCLOCK TIME (SEC) =          0

               CONVERGENCE CHECKS FOR EQUILIBRIUM ITERATION     2


 AVERAGE FORCE                       140.       TIME AVG. FORCE        59.6    
 LARGEST RESIDUAL FORCE            -2.734E-03   AT NODE         76   DOF  2
   INSTANCE: Instance A                                                                      
 LARGEST INCREMENT OF DISP.         4.274E-03   AT NODE        114   DOF  3
   INSTANCE: Instance A                                                                      
 LARGEST CORRECTION TO DISP.        2.459E-05   AT NODE        114   DOF  3
   INSTANCE: Instance A                                                                      
          THE FORCE     EQUILIBRIUM EQUATIONS HAVE CONVERGED

 AVERAGE MOMENT                      1.57       TIME AVG. MOMENT      0.663    
 LARGEST RESIDUAL MOMENT           -5.620E-05   AT NODE        192   DOF  5
   INSTANCE: Instance A                                                                      
 LARGEST INCREMENT OF ROTATION      2.359E-02   AT NODE          1   DOF  6
   INSTANCE: Instance A                                                                      
 LARGEST CORRECTION TO ROTATION     5.936E-05   AT NODE        191   DOF  4
   INSTANCE: Instance A                                                                      
          THE MOMENT    EQUILIBRIUM EQUATIONS HAVE CONVERGED

 COMPATIBILITY ERRORS:
    TYPE                NUMBER EXCEEDING TOLERANCE  MAXIMUM ERROR        IN ELEMENT
 BEAM AXIAL                          0                1.206E-10                181
   INSTANCE: Instance A                                                                      

 ITERATION SUMMARY FOR THE INCREMENT:   2 TOTAL ITERATIONS, OF WHICH
   0 ARE SEVERE DISCONTINUITY ITERATIONS AND  2 ARE EQUILIBRIUM ITERATIONS.

 TIME INCREMENT COMPLETED  5.000E-02,  FRACTION OF STEP COMPLETED  0.291    
 STEP TIME COMPLETED       0.291    ,  TOTAL TIME COMPLETED        0.291    


  INCREMENT    10 STARTS. ATTEMPT NUMBER  1, TIME INCREMENT  5.000E-02

  NUMBER OF EQUATIONS =     1256     NUMBER OF FLOATING PT. OPERATIONS =  8.20E+06

     CHECK POINT   START OF SOLVER    

     CHECK POINT  END OF SOLVER       

       ELAPSED USER TIME (SEC)      =   0.0000    
       ELAPSED SYSTEM TIME (SEC)    =   0.0000    
       ELAPSED TOTAL CPU TIME (SEC) =   0.0000    
       ELAPSED WALLCLOCK TIME (SEC) =          0

               CONVERGENCE CHECKS FOR EQUILIBRIUM ITERATION     1


 AVERAGE FORCE                       160.       TIME AVG. FORCE        69.7    
 LARGEST RESIDUAL FORCE             0.358       AT NODE        172   DOF  3
   INSTANCE: Instance A                                                                      
 LARGEST INCREMENT OF DISP.         4.202E-03   AT NODE        114   DOF  3
   INSTANCE: Instance A                                                                      
 LARGEST CORRECTION TO DISP.        1.340E-04   AT NODE        212   DOF  2
   INSTANCE: Instance A                                                                      
          FORCE     EQUILIBRIUM NOT ACHIEVED WITHIN TOLERANCE.

 AVERAGE MOMENT                      1.81       TIME AVG. MOMENT      0.778    
 LARGEST RESIDUAL MOMENT            1.493E-02   AT NODE        191   DOF  6
   INSTANCE: Instance A                                                                      
 LARGEST INCREMENT OF ROTATION      2.305E-02   AT NODE          1   DOF  6
   INSTANCE: Instance A                                                                      
 LARGEST CORRECTION TO ROTATION     6.218E-04   AT NODE          1   DOF  4
   INSTANCE: Instance A                                                                      
          MOMENT    EQUILIBRIUM NOT ACHIEVED WITHIN TOLERANCE.

 COMPATIBILITY ERRORS:
    TYPE                NUMBER EXCEEDING TOLERANCE  MAXIMUM ERROR        IN ELEMENT
 BEAM AXIAL                          0                1.849E-08                182
   INSTANCE: Instance A                                                                      

  NUMBER OF EQUATIONS =     1256     NUMBER OF FLOATING PT. OPERATIONS =  8.20E+06

     CHECK POINT   START OF SOLVER    

     CHECK POINT  END OF SOLVER       

       ELAPSED USER TIME (SEC)      =   0.0000    
       ELAPSED SYSTEM TIME (SEC)    =   0.0000    
       ELAPSED TOTAL CPU TIME (SEC) =   0.0000    
       ELAPSED WALLCLOCK TIME (SEC) =          0

               CONVERGENCE CHECKS FOR EQUILIBRIUM ITERATION     2


 AVERAGE FORCE                       161.       TIME AVG. FORCE        69.7    
 LARGEST RESIDUAL FORCE            -2.383E-03   AT NODE         76   DOF  2
   INSTANCE: Instance A                                                                      
 LARGEST INCREMENT OF DISP.         4.224E-03   AT NODE        114   DOF  3
   INSTANCE: Instance A                                                                      
 LARGEST CORRECTION TO DISP.        2.293E-05   AT NODE        114   DOF  3
   INSTANCE: Instance A                                                                      
          THE FORCE     EQUILIBRIUM EQUATIONS HAVE CONVERGED

 AVERAGE MOMENT                      1.81       TIME AVG. MOMENT      0.778    
 LARGEST RESIDUAL MOMENT            6.416E-05   AT NODE          2   DOF  5
   INSTANCE: Instance A                                                                      
 LARGEST INCREMENT OF ROTATION      2.299E-02   AT NODE          1   DOF  6
   INSTANCE: Instance A                                                                      
 LARGEST CORRECTION TO ROTATION     5.760E-05   AT NODE          1   DOF  4
   INSTANCE: Instance A                                                                      
          THE MOMENT    EQUILIBRIUM EQUATIONS HAVE CONVERGED

 COMPATIBILITY ERRORS:
    TYPE                NUMBER EXCEEDING TOLERANCE  MAXIMUM ERROR        IN ELEMENT
 BEAM AXIAL                          0                1.020E-10                182
   INSTANCE: Instance A                                                                      

 ITERATION SUMMARY FOR THE INCREMENT:   2 TOTAL ITERATIONS, OF WHICH
   0 ARE SEVERE DISCONTINUITY ITERATIONS AND  2 ARE EQUILIBRIUM ITERATIONS.

 TIME INCREMENT COMPLETED  5.000E-02,  FRACTION OF STEP COMPLETED  0.341    
 STEP TIME COMPLETED       0.341    ,  TOTAL TIME COMPLETED        0.341    


  INCREMENT    11 STARTS. ATTEMPT NUMBER  1, TIME INCREMENT  5.000E-02

  NUMBER OF EQUATIONS =     1256     NUMBER OF FLOATING PT. OPERATIONS =  8.20E+06

     CHECK POINT   START OF SOLVER    

     CHECK POINT  END OF SOLVER       

       ELAPSED USER TIME (SEC)      =   0.0000    
       ELAPSED SYSTEM TIME (SEC)    =   0.0000    
       ELAPSED TOTAL CPU TIME (SEC) =   0.0000    
       ELAPSED WALLCLOCK TIME (SEC) =          0

               CONVERGENCE CHECKS FOR EQUILIBRIUM ITERATION     1


 AVERAGE FORCE                       181.       TIME AVG. FORCE        79.8    
 LARGEST RESIDUAL FORCE             0.321       AT NODE        172   DOF  3
   INSTANCE: Instance A                                                                      
 LARGEST INCREMENT OF DISP.         4.159E-03   AT NODE        114   DOF  3
   INSTANCE: Instance A                                                                      
 LARGEST CORRECTION TO DISP.        1.254E-04   AT NODE        210   DOF  2
   INSTANCE: Instance A                                                                      
 ESTIMATE OF DISP.    CORRECTION    4.875E-08
 FORCE     EQUILIB. ACCEPTED BASED ON SMALL RESIDUAL AND ESTIMATED CORRECTION

 AVERAGE MOMENT                      2.05       TIME AVG. MOMENT      0.894    
 LARGEST RESIDUAL MOMENT            1.498E-02   AT NODE        191   DOF  6
   INSTANCE: Instance A                                                                      
 LARGEST INCREMENT OF ROTATION     -2.247E-02   AT NODE        191   DOF  6
   INSTANCE: Instance A                                                                      
 LARGEST CORRECTION TO ROTATION     5.885E-04   AT NODE        191   DOF  4
   INSTANCE: Instance A                                                                      
          MOMENT    EQUILIBRIUM NOT ACHIEVED WITHIN TOLERANCE.

 COMPATIBILITY ERRORS:
    TYPE                NUMBER EXCEEDING TOLERANCE  MAXIMUM ERROR        IN ELEMENT
 BEAM AXIAL                          0                1.673E-08                181
   INSTANCE: Instance A                                                                      

  NUMBER OF EQUATIONS =     1256     NUMBER OF FLOATING PT. OPERATIONS =  8.20E+06

     CHECK POINT   START OF SOLVER    

     CHECK POINT  END OF SOLVER       

       ELAPSED USER TIME (SEC)      =   0.0000    
       ELAPSED SYSTEM TIME (SEC)    =   0.0000    
       ELAPSED TOTAL CPU TIME (SEC) =   0.0000    
       ELAPSED WALLCLOCK TIME (SEC) =          0

               CONVERGENCE CHECKS FOR EQUILIBRIUM ITERATION     2


 AVERAGE FORCE                       181.       TIME AVG. FORCE        79.9    
 LARGEST RESIDUAL FORCE            -2.381E-03   AT NODE        172   DOF  3
   INSTANCE: Instance A                                                                      
 LARGEST INCREMENT OF DISP.         4.181E-03   AT NODE        114   DOF  3
   INSTANCE: Instance A                                                                      
 LARGEST CORRECTION TO DISP.        2.147E-05   AT NODE        114   DOF  3
   INSTANCE: Instance A                                                                      
          THE FORCE     EQUILIBRIUM EQUATIONS HAVE CONVERGED

 AVERAGE MOMENT                      2.06       TIME AVG. MOMENT      0.894    
 LARGEST RESIDUAL MOMENT            7.144E-05   AT NODE          2   DOF  5
   INSTANCE: Instance A                                                                      
 LARGEST INCREMENT OF ROTATION     -2.242E-02   AT NODE        191   DOF  6
   INSTANCE: Instance A                                                                      
 LARGEST CORRECTION TO ROTATION    -5.808E-05   AT NODE          1   DOF  6
   INSTANCE: Instance A                                                                      
          THE MOMENT    EQUILIBRIUM EQUATIONS HAVE CONVERGED

 COMPATIBILITY ERRORS:
    TYPE                NUMBER EXCEEDING TOLERANCE  MAXIMUM ERROR        IN ELEMENT
 BEAM AXIAL                          0                8.697E-11                181
   INSTANCE: Instance A                                                                      

 ITERATION SUMMARY FOR THE INCREMENT:   2 TOTAL ITERATIONS, OF WHICH
   0 ARE SEVERE DISCONTINUITY ITERATIONS AND  2 ARE EQUILIBRIUM ITERATIONS.

 TIME INCREMENT COMPLETED  5.000E-02,  FRACTION OF STEP COMPLETED  0.391    
 STEP TIME COMPLETED       0.391    ,  TOTAL TIME COMPLETED        0.391    


  INCREMENT    12 STARTS. ATTEMPT NUMBER  1, TIME INCREMENT  5.000E-02

  NUMBER OF EQUATIONS =     1256     NUMBER OF FLOATING PT. OPERATIONS =  8.20E+06

     CHECK POINT   START OF SOLVER    

     CHECK POINT  END OF SOLVER       

       ELAPSED USER TIME (SEC)      =   0.0000    
       ELAPSED SYSTEM TIME (SEC)    =   0.0000    
       ELAPSED TOTAL CPU TIME (SEC) =   0.0000    
       ELAPSED WALLCLOCK TIME (SEC) =          0

               CONVERGENCE CHECKS FOR EQUILIBRIUM ITERATION     1


 AVERAGE FORCE                       201.       TIME AVG. FORCE        90.0    
 LARGEST RESIDUAL FORCE             0.289       AT NODE         20   DOF  3
   INSTANCE: Instance A                                                                      
 LARGEST INCREMENT OF DISP.         4.122E-03   AT NODE        114   DOF  3
   INSTANCE: Instance A                                                                      
 LARGEST CORRECTION TO DISP.        1.174E-04   AT NODE        191   DOF  2
   INSTANCE: Instance A                                                                      
 ESTIMATE OF DISP.    CORRECTION    4.306E-08
 FORCE     EQUILIB. ACCEPTED BASED ON SMALL RESIDUAL AND ESTIMATED CORRECTION

 AVERAGE MOMENT                      2.28       TIME AVG. MOMENT       1.01    
 LARGEST RESIDUAL MOMENT           -1.497E-02   AT NODE          1   DOF  6
   INSTANCE: Instance A                                                                      
 LARGEST INCREMENT OF ROTATION      2.193E-02   AT NODE          1   DOF  6
   INSTANCE: Instance A                                                                      
 LARGEST CORRECTION TO ROTATION     5.578E-04   AT NODE          1   DOF  4
   INSTANCE: Instance A                                                                      
          MOMENT    EQUILIBRIUM NOT ACHIEVED WITHIN TOLERANCE.

 COMPATIBILITY ERRORS:
    TYPE                NUMBER EXCEEDING TOLERANCE  MAXIMUM ERROR        IN ELEMENT
 BEAM AXIAL                          0                1.515E-08                182
   INSTANCE: Instance A                                                                      

  NUMBER OF EQUATIONS =     1256     NUMBER OF FLOATING PT. OPERATIONS =  8.20E+06

     CHECK POINT   START OF SOLVER    

     CHECK POINT  END OF SOLVER       

       ELAPSED USER TIME (SEC)      =   0.0000    
       ELAPSED SYSTEM TIME (SEC)    =   0.0000    
       ELAPSED TOTAL CPU TIME (SEC) =   0.0000    
       ELAPSED WALLCLOCK TIME (SEC) =          0

               CONVERGENCE CHECKS FOR EQUILIBRIUM ITERATION     2


 AVERAGE FORCE                       201.       TIME AVG. FORCE        90.0    
 LARGEST RESIDUAL FORCE            -3.252E-03   AT NODE         20   DOF  3
   INSTANCE: Instance A                                                                      
 LARGEST INCREMENT OF DISP.         4.142E-03   AT NODE        114   DOF  3
   INSTANCE: Instance A                                                                      
 LARGEST CORRECTION TO DISP.        2.017E-05   AT NODE        114   DOF  3
   INSTANCE: Instance A                                                                      
          THE FORCE     EQUILIBRIUM EQUATIONS HAVE CONVERGED

 AVERAGE MOMENT                      2.29       TIME AVG. MOMENT       1.01    
 LARGEST RESIDUAL MOMENT           -7.796E-05   AT NODE        192   DOF  5
   INSTANCE: Instance A                                                                      
 LARGEST INCREMENT OF ROTATION      2.187E-02   AT NODE          1   DOF  6
   INSTANCE: Instance A                                                                      
 LARGEST CORRECTION TO ROTATION    -5.987E-05   AT NODE          1   DOF  6
   INSTANCE: Instance A                                                                      
          THE MOMENT    EQUILIBRIUM EQUATIONS HAVE CONVERGED

 COMPATIBILITY ERRORS:
    TYPE                NUMBER EXCEEDING TOLERANCE  MAXIMUM ERROR        IN ELEMENT
 BEAM AXIAL                          0                7.475E-11                181
   INSTANCE: Instance A                                                                      

 ITERATION SUMMARY FOR THE INCREMENT:   2 TOTAL ITERATIONS, OF WHICH
   0 ARE SEVERE DISCONTINUITY ITERATIONS AND  2 ARE EQUILIBRIUM ITERATIONS.

 TIME INCREMENT COMPLETED  5.000E-02,  FRACTION OF STEP COMPLETED  0.441    
 STEP TIME COMPLETED       0.441    ,  TOTAL TIME COMPLETED        0.441    


  INCREMENT    13 STARTS. ATTEMPT NUMBER  1, TIME INCREMENT  5.000E-02

  NUMBER OF EQUATIONS =     1256     NUMBER OF FLOATING PT. OPERATIONS =  8.20E+06

     CHECK POINT   START OF SOLVER    

     CHECK POINT  END OF SOLVER       

       ELAPSED USER TIME (SEC)      =  0.10000    
       ELAPSED SYSTEM TIME (SEC)    =   0.0000    
       ELAPSED TOTAL CPU TIME (SEC) =  0.10000    
       ELAPSED WALLCLOCK TIME (SEC) =          0

               CONVERGENCE CHECKS FOR EQUILIBRIUM ITERATION     1


 AVERAGE FORCE                       221.       TIME AVG. FORCE        100.    
 LARGEST RESIDUAL FORCE             0.259       AT NODE        172   DOF  3
   INSTANCE: Instance A                                                                      
 LARGEST INCREMENT OF DISP.         4.088E-03   AT NODE        114   DOF  3
   INSTANCE: Instance A                                                                      
 LARGEST CORRECTION TO DISP.        1.101E-04   AT NODE        191   DOF  2
   INSTANCE: Instance A                                                                      
 ESTIMATE OF DISP.    CORRECTION    3.809E-08
 FORCE     EQUILIB. ACCEPTED BASED ON SMALL RESIDUAL AND ESTIMATED CORRECTION

 AVERAGE MOMENT                      2.51       TIME AVG. MOMENT       1.13    
 LARGEST RESIDUAL MOMENT            1.491E-02   AT NODE        191   DOF  6
   INSTANCE: Instance A                                                                      
 LARGEST INCREMENT OF ROTATION      2.141E-02   AT NODE          1   DOF  6
   INSTANCE: Instance A                                                                      
 LARGEST CORRECTION TO ROTATION     5.294E-04   AT NODE        191   DOF  4
   INSTANCE: Instance A                                                                      
          MOMENT    EQUILIBRIUM NOT ACHIEVED WITHIN TOLERANCE.

 COMPATIBILITY ERRORS:
    TYPE                NUMBER EXCEEDING TOLERANCE  MAXIMUM ERROR        IN ELEMENT
 BEAM AXIAL                          0                1.373E-08                181
   INSTANCE: Instance A                                                                      

  NUMBER OF EQUATIONS =     1256     NUMBER OF FLOATING PT. OPERATIONS =  8.20E+06

     CHECK POINT   START OF SOLVER    

     CHECK POINT  END OF SOLVER       

       ELAPSED USER TIME (SEC)      =   0.0000    
       ELAPSED SYSTEM TIME (SEC)    =   0.0000    
       ELAPSED TOTAL CPU TIME (SEC) =   0.0000    
       ELAPSED WALLCLOCK TIME (SEC) =          0

               CONVERGENCE CHECKS FOR EQUILIBRIUM ITERATION     2


 AVERAGE FORCE                       221.       TIME AVG. FORCE        100.    
 LARGEST RESIDUAL FORCE            -4.055E-03   AT NODE        172   DOF  3
   INSTANCE: Instance A                                                                      
 LARGEST INCREMENT OF DISP.         4.107E-03   AT NODE        114   DOF  3
   INSTANCE: Instance A                                                                      
 LARGEST CORRECTION TO DISP.        1.901E-05   AT NODE        114   DOF  3
   INSTANCE: Instance A                                                                      
          THE FORCE     EQUILIBRIUM EQUATIONS HAVE CONVERGED

 AVERAGE MOMENT                      2.52       TIME AVG. MOMENT       1.13    
 LARGEST RESIDUAL MOMENT           -8.372E-05   AT NODE        192   DOF  5
   INSTANCE: Instance A                                                                      
 LARGEST INCREMENT OF ROTATION      2.135E-02   AT NODE          1   DOF  6
   INSTANCE: Instance A                                                                      
 LARGEST CORRECTION TO ROTATION    -6.124E-05   AT NODE          1   DOF  6
   INSTANCE: Instance A                                                                      
          THE MOMENT    EQUILIBRIUM EQUATIONS HAVE CONVERGED

 COMPATIBILITY ERRORS:
    TYPE                NUMBER EXCEEDING TOLERANCE  MAXIMUM ERROR        IN ELEMENT
 BEAM AXIAL                          0                6.469E-11                182
   INSTANCE: Instance A                                                                      

 ITERATION SUMMARY FOR THE INCREMENT:   2 TOTAL ITERATIONS, OF WHICH
   0 ARE SEVERE DISCONTINUITY ITERATIONS AND  2 ARE EQUILIBRIUM ITERATIONS.

 TIME INCREMENT COMPLETED  5.000E-02,  FRACTION OF STEP COMPLETED  0.491    
 STEP TIME COMPLETED       0.491    ,  TOTAL TIME COMPLETED        0.491    


  INCREMENT    14 STARTS. ATTEMPT NUMBER  1, TIME INCREMENT  5.000E-02

  NUMBER OF EQUATIONS =     1256     NUMBER OF FLOATING PT. OPERATIONS =  8.20E+06

     CHECK POINT   START OF SOLVER    

     CHECK POINT  END OF SOLVER       

       ELAPSED USER TIME (SEC)      =   0.0000    
       ELAPSED SYSTEM TIME (SEC)    =   0.0000    
       ELAPSED TOTAL CPU TIME (SEC) =   0.0000    
       ELAPSED WALLCLOCK TIME (SEC) =          0

               CONVERGENCE CHECKS FOR EQUILIBRIUM ITERATION     1


 AVERAGE FORCE                       240.       TIME AVG. FORCE        110.    
 LARGEST RESIDUAL FORCE             0.234       AT NODE         20   DOF  3
   INSTANCE: Instance A                                                                      
 LARGEST INCREMENT OF DISP.         4.057E-03   AT NODE        114   DOF  3
   INSTANCE: Instance A                                                                      
 LARGEST CORRECTION TO DISP.        1.034E-04   AT NODE        210   DOF  2
   INSTANCE: Instance A                                                                      
 ESTIMATE OF DISP.    CORRECTION    3.372E-08
 FORCE     EQUILIB. ACCEPTED BASED ON SMALL RESIDUAL AND ESTIMATED CORRECTION

 AVERAGE MOMENT                      2.74       TIME AVG. MOMENT       1.24    
 LARGEST RESIDUAL MOMENT           -1.480E-02   AT NODE          1   DOF  6
   INSTANCE: Instance A                                                                      
 LARGEST INCREMENT OF ROTATION     -2.092E-02   AT NODE        191   DOF  6
   INSTANCE: Instance A                                                                      
 LARGEST CORRECTION TO ROTATION     5.029E-04   AT NODE          1   DOF  4
   INSTANCE: Instance A                                                                      
          MOMENT    EQUILIBRIUM NOT ACHIEVED WITHIN TOLERANCE.

 COMPATIBILITY ERRORS:
    TYPE                NUMBER EXCEEDING TOLERANCE  MAXIMUM ERROR        IN ELEMENT
 BEAM AXIAL                          0                1.246E-08                182
   INSTANCE: Instance A                                                                      

  NUMBER OF EQUATIONS =     1256     NUMBER OF FLOATING PT. OPERATIONS =  8.20E+06

     CHECK POINT   START OF SOLVER    

     CHECK POINT  END OF SOLVER       

       ELAPSED USER TIME (SEC)      =  0.10000    
       ELAPSED SYSTEM TIME (SEC)    =   0.0000    
       ELAPSED TOTAL CPU TIME (SEC) =  0.10000    
       ELAPSED WALLCLOCK TIME (SEC) =          0

               CONVERGENCE CHECKS FOR EQUILIBRIUM ITERATION     2


 AVERAGE FORCE                       240.       TIME AVG. FORCE        110.    
 LARGEST RESIDUAL FORCE            -4.793E-03   AT NODE        172   DOF  3
   INSTANCE: Instance A                                                                      
 LARGEST INCREMENT OF DISP.         4.075E-03   AT NODE        114   DOF  3
   INSTANCE: Instance A                                                                      
 LARGEST CORRECTION TO DISP.        1.796E-05   AT NODE        114   DOF  3
   INSTANCE: Instance A                                                                      
          THE FORCE     EQUILIBRIUM EQUATIONS HAVE CONVERGED

 AVERAGE MOMENT                      2.75       TIME AVG. MOMENT       1.24    
 LARGEST RESIDUAL MOMENT            8.872E-05   AT NODE          2   DOF  5
   INSTANCE: Instance A                                                                      
 LARGEST INCREMENT OF ROTATION     -2.086E-02   AT NODE        191   DOF  6
   INSTANCE: Instance A                                                                      
 LARGEST CORRECTION TO ROTATION     6.225E-05   AT NODE        191   DOF  6
   INSTANCE: Instance A                                                                      
          THE MOMENT    EQUILIBRIUM EQUATIONS HAVE CONVERGED

 COMPATIBILITY ERRORS:
    TYPE                NUMBER EXCEEDING TOLERANCE  MAXIMUM ERROR        IN ELEMENT
 BEAM AXIAL                          0                5.636E-11                181
   INSTANCE: Instance A                                                                      

 ITERATION SUMMARY FOR THE INCREMENT:   2 TOTAL ITERATIONS, OF WHICH
   0 ARE SEVERE DISCONTINUITY ITERATIONS AND  2 ARE EQUILIBRIUM ITERATIONS.

 TIME INCREMENT COMPLETED  5.000E-02,  FRACTION OF STEP COMPLETED  0.541    
 STEP TIME COMPLETED       0.541    ,  TOTAL TIME COMPLETED        0.541    


  INCREMENT    15 STARTS. ATTEMPT NUMBER  1, TIME INCREMENT  5.000E-02

  NUMBER OF EQUATIONS =     1256     NUMBER OF FLOATING PT. OPERATIONS =  8.20E+06

     CHECK POINT   START OF SOLVER    

     CHECK POINT  END OF SOLVER       

       ELAPSED USER TIME (SEC)      =   0.0000    
       ELAPSED SYSTEM TIME (SEC)    =   0.0000    
       ELAPSED TOTAL CPU TIME (SEC) =   0.0000    
       ELAPSED WALLCLOCK TIME (SEC) =          0

               CONVERGENCE CHECKS FOR EQUILIBRIUM ITERATION     1


 AVERAGE FORCE                       258.       TIME AVG. FORCE        120.    
 LARGEST RESIDUAL FORCE             0.210       AT NODE        172   DOF  3
   INSTANCE: Instance A                                                                      
 LARGEST INCREMENT OF DISP.         4.029E-03   AT NODE        114   DOF  3
   INSTANCE: Instance A                                                                      
 LARGEST CORRECTION TO DISP.        9.717E-05   AT NODE        191   DOF  2
   INSTANCE: Instance A                                                                      
 ESTIMATE OF DISP.    CORRECTION    2.988E-08
 FORCE     EQUILIB. ACCEPTED BASED ON SMALL RESIDUAL AND ESTIMATED CORRECTION

 AVERAGE MOMENT                      2.96       TIME AVG. MOMENT       1.36    
 LARGEST RESIDUAL MOMENT            1.466E-02   AT NODE        191   DOF  6
   INSTANCE: Instance A                                                                      
 LARGEST INCREMENT OF ROTATION      2.044E-02   AT NODE          1   DOF  6
   INSTANCE: Instance A                                                                      
 LARGEST CORRECTION TO ROTATION     4.783E-04   AT NODE        191   DOF  4
   INSTANCE: Instance A                                                                      
          MOMENT    EQUILIBRIUM NOT ACHIEVED WITHIN TOLERANCE.

 COMPATIBILITY ERRORS:
    TYPE                NUMBER EXCEEDING TOLERANCE  MAXIMUM ERROR        IN ELEMENT
 BEAM AXIAL                          0                1.132E-08                182
   INSTANCE: Instance A                                                                      

  NUMBER OF EQUATIONS =     1256     NUMBER OF FLOATING PT. OPERATIONS =  8.20E+06

     CHECK POINT   START OF SOLVER    

     CHECK POINT  END OF SOLVER       

       ELAPSED USER TIME (SEC)      =   0.0000    
       ELAPSED SYSTEM TIME (SEC)    =   0.0000    
       ELAPSED TOTAL CPU TIME (SEC) =   0.0000    
       ELAPSED WALLCLOCK TIME (SEC) =          0

               CONVERGENCE CHECKS FOR EQUILIBRIUM ITERATION     2


 AVERAGE FORCE                       258.       TIME AVG. FORCE        120.    
 LARGEST RESIDUAL FORCE            -5.470E-03   AT NODE         20   DOF  3
   INSTANCE: Instance A                                                                      
 LARGEST INCREMENT OF DISP.         4.046E-03   AT NODE        114   DOF  3
   INSTANCE: Instance A                                                                      
 LARGEST CORRECTION TO DISP.        1.702E-05   AT NODE        114   DOF  3
   INSTANCE: Instance A                                                                      
          THE FORCE     EQUILIBRIUM EQUATIONS HAVE CONVERGED

 AVERAGE MOMENT                      2.97       TIME AVG. MOMENT       1.36    
 LARGEST RESIDUAL MOMENT           -9.555E-05   AT NODE          2   DOF  4
   INSTANCE: Instance A                                                                      
 LARGEST INCREMENT OF ROTATION      2.038E-02   AT NODE          1   DOF  6
   INSTANCE: Instance A                                                                      
 LARGEST CORRECTION TO ROTATION     6.295E-05   AT NODE        191   DOF  6
   INSTANCE: Instance A                                                                      
          THE MOMENT    EQUILIBRIUM EQUATIONS HAVE CONVERGED

 COMPATIBILITY ERRORS:
    TYPE                NUMBER EXCEEDING TOLERANCE  MAXIMUM ERROR        IN ELEMENT
 BEAM AXIAL                          0                4.940E-11                181
   INSTANCE: Instance A                                                                      

 ITERATION SUMMARY FOR THE INCREMENT:   2 TOTAL ITERATIONS, OF WHICH
   0 ARE SEVERE DISCONTINUITY ITERATIONS AND  2 ARE EQUILIBRIUM ITERATIONS.

 TIME INCREMENT COMPLETED  5.000E-02,  FRACTION OF STEP COMPLETED  0.591    
 STEP TIME COMPLETED       0.591    ,  TOTAL TIME COMPLETED        0.591    


  INCREMENT    16 STARTS. ATTEMPT NUMBER  1, TIME INCREMENT  5.000E-02

  NUMBER OF EQUATIONS =     1256     NUMBER OF FLOATING PT. OPERATIONS =  8.20E+06

     CHECK POINT   START OF SOLVER    

     CHECK POINT  END OF SOLVER       

       ELAPSED USER TIME (SEC)      =   0.0000    
       ELAPSED SYSTEM TIME (SEC)    =   0.0000    
       ELAPSED TOTAL CPU TIME (SEC) =   0.0000    
       ELAPSED WALLCLOCK TIME (SEC) =          0

               CONVERGENCE CHECKS FOR EQUILIBRIUM ITERATION     1


 AVERAGE FORCE                       276.       TIME AVG. FORCE        130.    
 LARGEST RESIDUAL FORCE             0.190       AT NODE         20   DOF  3
   INSTANCE: Instance A                                                                      
 LARGEST INCREMENT OF DISP.         4.002E-03   AT NODE        114   DOF  3
   INSTANCE: Instance A                                                                      
 LARGEST CORRECTION TO DISP.        9.144E-05   AT NODE        212   DOF  2
   INSTANCE: Instance A                                                                      
 ESTIMATE OF DISP.    CORRECTION    2.649E-08
 FORCE     EQUILIB. ACCEPTED BASED ON SMALL RESIDUAL AND ESTIMATED CORRECTION

 AVERAGE MOMENT                      3.18       TIME AVG. MOMENT       1.47    
 LARGEST RESIDUAL MOMENT            1.448E-02   AT NODE        191   DOF  6
   INSTANCE: Instance A                                                                      
 LARGEST INCREMENT OF ROTATION      1.999E-02   AT NODE          1   DOF  6
   INSTANCE: Instance A                                                                      
 LARGEST CORRECTION TO ROTATION     4.552E-04   AT NODE          1   DOF  4
   INSTANCE: Instance A                                                                      
          MOMENT    EQUILIBRIUM NOT ACHIEVED WITHIN TOLERANCE.

 COMPATIBILITY ERRORS:
    TYPE                NUMBER EXCEEDING TOLERANCE  MAXIMUM ERROR        IN ELEMENT
 BEAM AXIAL                          0                1.029E-08                181
   INSTANCE: Instance A                                                                      

  NUMBER OF EQUATIONS =     1256     NUMBER OF FLOATING PT. OPERATIONS =  8.20E+06

     CHECK POINT   START OF SOLVER    

     CHECK POINT  END OF SOLVER       

       ELAPSED USER TIME (SEC)      =   0.0000    
       ELAPSED SYSTEM TIME (SEC)    =   0.0000    
       ELAPSED TOTAL CPU TIME (SEC) =   0.0000    
       ELAPSED WALLCLOCK TIME (SEC) =          0

               CONVERGENCE CHECKS FOR EQUILIBRIUM ITERATION     2


 AVERAGE FORCE                       276.       TIME AVG. FORCE        130.    
 LARGEST RESIDUAL FORCE            -6.090E-03   AT NODE         20   DOF  3
   INSTANCE: Instance A                                                                      
 LARGEST INCREMENT OF DISP.         4.019E-03   AT NODE        114   DOF  3
   INSTANCE: Instance A                                                                      
 LARGEST CORRECTION TO DISP.        1.615E-05   AT NODE        114   DOF  3
   INSTANCE: Instance A                                                                      
          THE FORCE     EQUILIBRIUM EQUATIONS HAVE CONVERGED

 AVERAGE MOMENT                      3.19       TIME AVG. MOMENT       1.47    
 LARGEST RESIDUAL MOMENT           -1.057E-04   AT NODE        192   DOF  4
   INSTANCE: Instance A                                                                      
 LARGEST INCREMENT OF ROTATION     -1.993E-02   AT NODE        191   DOF  6
   INSTANCE: Instance A                                                                      
 LARGEST CORRECTION TO ROTATION    -6.338E-05   AT NODE          1   DOF  6
   INSTANCE: Instance A                                                                      
          THE MOMENT    EQUILIBRIUM EQUATIONS HAVE CONVERGED

 COMPATIBILITY ERRORS:
    TYPE                NUMBER EXCEEDING TOLERANCE  MAXIMUM ERROR        IN ELEMENT
 BEAM AXIAL                          0                4.354E-11                181
   INSTANCE: Instance A                                                                      

 ITERATION SUMMARY FOR THE INCREMENT:   2 TOTAL ITERATIONS, OF WHICH
   0 ARE SEVERE DISCONTINUITY ITERATIONS AND  2 ARE EQUILIBRIUM ITERATIONS.

 TIME INCREMENT COMPLETED  5.000E-02,  FRACTION OF STEP COMPLETED  0.641    
 STEP TIME COMPLETED       0.641    ,  TOTAL TIME COMPLETED        0.641    


  INCREMENT    17 STARTS. ATTEMPT NUMBER  1, TIME INCREMENT  5.000E-02

  NUMBER OF EQUATIONS =     1256     NUMBER OF FLOATING PT. OPERATIONS =  8.20E+06

     CHECK POINT   START OF SOLVER    

     CHECK POINT  END OF SOLVER       

       ELAPSED USER TIME (SEC)      =   0.0000    
       ELAPSED SYSTEM TIME (SEC)    =   0.0000    
       ELAPSED TOTAL CPU TIME (SEC) =   0.0000    
       ELAPSED WALLCLOCK TIME (SEC) =          0

               CONVERGENCE CHECKS FOR EQUILIBRIUM ITERATION     1


 AVERAGE FORCE                       293.       TIME AVG. FORCE        139.    
 LARGEST RESIDUAL FORCE             0.171       AT NODE         20   DOF  3
   INSTANCE: Instance A                                                                      
 LARGEST INCREMENT OF DISP.         3.977E-03   AT NODE        114   DOF  3
   INSTANCE: Instance A                                                                      
 LARGEST CORRECTION TO DISP.        8.613E-05   AT NODE        210   DOF  2
   INSTANCE: Instance A                                                                      
 ESTIMATE OF DISP.    CORRECTION    2.349E-08
 FORCE     EQUILIB. ACCEPTED BASED ON SMALL RESIDUAL AND ESTIMATED CORRECTION

 AVERAGE MOMENT                      3.39       TIME AVG. MOMENT       1.59    
 LARGEST RESIDUAL MOMENT           -1.428E-02   AT NODE          1   DOF  6
   INSTANCE: Instance A                                                                      
 LARGEST INCREMENT OF ROTATION      1.955E-02   AT NODE          1   DOF  6
   INSTANCE: Instance A                                                                      
 LARGEST CORRECTION TO ROTATION     4.336E-04   AT NODE        191   DOF  4
   INSTANCE: Instance A                                                                      
          MOMENT    EQUILIBRIUM NOT ACHIEVED WITHIN TOLERANCE.

 COMPATIBILITY ERRORS:
    TYPE                NUMBER EXCEEDING TOLERANCE  MAXIMUM ERROR        IN ELEMENT
 BEAM AXIAL                          0                9.368E-09                181
   INSTANCE: Instance A                                                                      

  NUMBER OF EQUATIONS =     1256     NUMBER OF FLOATING PT. OPERATIONS =  8.20E+06

     CHECK POINT   START OF SOLVER    

     CHECK POINT  END OF SOLVER       

       ELAPSED USER TIME (SEC)      =   0.0000    
       ELAPSED SYSTEM TIME (SEC)    =   0.0000    
       ELAPSED TOTAL CPU TIME (SEC) =   0.0000    
       ELAPSED WALLCLOCK TIME (SEC) =          0

               CONVERGENCE CHECKS FOR EQUILIBRIUM ITERATION     2


 AVERAGE FORCE                       293.       TIME AVG. FORCE        139.    
 LARGEST RESIDUAL FORCE            -6.657E-03   AT NODE        172   DOF  3
   INSTANCE: Instance A                                                                      
 LARGEST INCREMENT OF DISP.         3.993E-03   AT NODE        114   DOF  3
   INSTANCE: Instance A                                                                      
 LARGEST CORRECTION TO DISP.        1.536E-05   AT NODE        114   DOF  3
   INSTANCE: Instance A                                                                      
          THE FORCE     EQUILIBRIUM EQUATIONS HAVE CONVERGED

 AVERAGE MOMENT                      3.40       TIME AVG. MOMENT       1.59    
 LARGEST RESIDUAL MOMENT           -1.154E-04   AT NODE          2   DOF  4
   INSTANCE: Instance A                                                                      
 LARGEST INCREMENT OF ROTATION      1.949E-02   AT NODE          1   DOF  6
   INSTANCE: Instance A                                                                      
 LARGEST CORRECTION TO ROTATION     6.359E-05   AT NODE        191   DOF  6
   INSTANCE: Instance A                                                                      
          THE MOMENT    EQUILIBRIUM EQUATIONS HAVE CONVERGED

 COMPATIBILITY ERRORS:
    TYPE                NUMBER EXCEEDING TOLERANCE  MAXIMUM ERROR        IN ELEMENT
 BEAM AXIAL                          0                3.857E-11                181
   INSTANCE: Instance A                                                                      

 ITERATION SUMMARY FOR THE INCREMENT:   2 TOTAL ITERATIONS, OF WHICH
   0 ARE SEVERE DISCONTINUITY ITERATIONS AND  2 ARE EQUILIBRIUM ITERATIONS.

 TIME INCREMENT COMPLETED  5.000E-02,  FRACTION OF STEP COMPLETED  0.691    
 STEP TIME COMPLETED       0.691    ,  TOTAL TIME COMPLETED        0.691    


  INCREMENT    18 STARTS. ATTEMPT NUMBER  1, TIME INCREMENT  5.000E-02

  NUMBER OF EQUATIONS =     1256     NUMBER OF FLOATING PT. OPERATIONS =  8.20E+06

     CHECK POINT   START OF SOLVER    

     CHECK POINT  END OF SOLVER       

       ELAPSED USER TIME (SEC)      =   0.0000    
       ELAPSED SYSTEM TIME (SEC)    =   0.0000    
       ELAPSED TOTAL CPU TIME (SEC) =   0.0000    
       ELAPSED WALLCLOCK TIME (SEC) =          0

               CONVERGENCE CHECKS FOR EQUILIBRIUM ITERATION     1


 AVERAGE FORCE                       310.       TIME AVG. FORCE        149.    
 LARGEST RESIDUAL FORCE             0.154       AT NODE        172   DOF  3
   INSTANCE: Instance A                                                                      
 LARGEST INCREMENT OF DISP.         3.954E-03   AT NODE        114   DOF  3
   INSTANCE: Instance A                                                                      
 LARGEST CORRECTION TO DISP.        8.121E-05   AT NODE        212   DOF  2
   INSTANCE: Instance A                                                                      
 ESTIMATE OF DISP.    CORRECTION    2.083E-08
 FORCE     EQUILIB. ACCEPTED BASED ON SMALL RESIDUAL AND ESTIMATED CORRECTION

 AVERAGE MOMENT                      3.60       TIME AVG. MOMENT       1.70    
 LARGEST RESIDUAL MOMENT            1.407E-02   AT NODE        191   DOF  6
   INSTANCE: Instance A                                                                      
 LARGEST INCREMENT OF ROTATION     -1.913E-02   AT NODE        191   DOF  6
   INSTANCE: Instance A                                                                      
[...]
       ELAPSED SYSTEM TIME (SEC)    =   0.0000    
       ELAPSED TOTAL CPU TIME (SEC) =   0.0000    
       ELAPSED WALLCLOCK TIME (SEC) =          0

               CONVERGENCE CHECKS FOR EQUILIBRIUM ITERATION     1


 AVERAGE FORCE                       359.       TIME AVG. FORCE        338.    
 LARGEST RESIDUAL FORCE            -0.200       AT NODE        190   DOF  2
   INSTANCE: Instance A                                                                      
 LARGEST INCREMENT OF DISP.        -3.737E-03   AT NODE        209   DOF  3
   INSTANCE: Instance A                                                                      
 LARGEST CORRECTION TO DISP.       -1.804E-04   AT NODE        209   DOF  3
   INSTANCE: Instance A                                                                      
 ESTIMATE OF DISP.    CORRECTION    4.774E-08
 FORCE     EQUILIB. ACCEPTED BASED ON SMALL RESIDUAL AND ESTIMATED CORRECTION

 AVERAGE MOMENT                      3.30       TIME AVG. MOMENT       2.87    
 LARGEST RESIDUAL MOMENT            1.039E-02   AT NODE         20   DOF  6
   INSTANCE: Instance A                                                                      
 LARGEST INCREMENT OF ROTATION      1.732E-02   AT NODE          1   DOF  4
   INSTANCE: Instance A                                                                      
 LARGEST CORRECTION TO ROTATION     4.621E-04   AT NODE        133   DOF  5
   INSTANCE: Instance A                                                                      
 ESTIMATE OF ROTATION CORRECTION    1.538E-06
 MOMENT    EQUILIB. ACCEPTED BASED ON SMALL RESIDUAL AND ESTIMATED CORRECTION

 COMPATIBILITY ERRORS:
    TYPE                NUMBER EXCEEDING TOLERANCE  MAXIMUM ERROR        IN ELEMENT
 BEAM AXIAL                          0                4.039E-09                181
   INSTANCE: Instance A                                                                      

 ITERATION SUMMARY FOR THE INCREMENT:   1 TOTAL ITERATIONS, OF WHICH
   0 ARE SEVERE DISCONTINUITY ITERATIONS AND  1 ARE EQUILIBRIUM ITERATIONS.

 TIME INCREMENT COMPLETED  5.000E-02,  FRACTION OF STEP COMPLETED  0.791    
 STEP TIME COMPLETED       0.791    ,  TOTAL TIME COMPLETED         15.8    


  INCREMENT    20 STARTS. ATTEMPT NUMBER  1, TIME INCREMENT  5.000E-02

  NUMBER OF EQUATIONS =     1256     NUMBER OF FLOATING PT. OPERATIONS =  8.20E+06

     CHECK POINT   START OF SOLVER    

     CHECK POINT  END OF SOLVER       

       ELAPSED USER TIME (SEC)      =   0.0000    
       ELAPSED SYSTEM TIME (SEC)    =   0.0000    
       ELAPSED TOTAL CPU TIME (SEC) =   0.0000    
       ELAPSED WALLCLOCK TIME (SEC) =          0

               CONVERGENCE CHECKS FOR EQUILIBRIUM ITERATION     1


 AVERAGE FORCE                       369.       TIME AVG. FORCE        339.    
 LARGEST RESIDUAL FORCE            -0.249       AT NODE        190   DOF  2
   INSTANCE: Instance A                                                                      
 LARGEST INCREMENT OF DISP.        -3.940E-03   AT NODE        209   DOF  3
   INSTANCE: Instance A                                                                      
 LARGEST CORRECTION TO DISP.       -2.025E-04   AT NODE        209   DOF  3
   INSTANCE: Instance A                                                                      
 ESTIMATE OF DISP.    CORRECTION    6.405E-08
 FORCE     EQUILIB. ACCEPTED BASED ON SMALL RESIDUAL AND ESTIMATED CORRECTION

 AVERAGE MOMENT                      3.37       TIME AVG. MOMENT       2.90    
 LARGEST RESIDUAL MOMENT            1.175E-02   AT NODE         20   DOF  6
   INSTANCE: Instance A                                                                      
 LARGEST INCREMENT OF ROTATION      1.772E-02   AT NODE          1   DOF  4
   INSTANCE: Instance A                                                                      
 LARGEST CORRECTION TO ROTATION     5.072E-04   AT NODE        133   DOF  5
   INSTANCE: Instance A                                                                      
 ESTIMATE OF ROTATION CORRECTION    1.806E-06
 MOMENT    EQUILIB. ACCEPTED BASED ON SMALL RESIDUAL AND ESTIMATED CORRECTION

 COMPATIBILITY ERRORS:
    TYPE                NUMBER EXCEEDING TOLERANCE  MAXIMUM ERROR        IN ELEMENT
 BEAM AXIAL                          0                4.156E-09                181
   INSTANCE: Instance A                                                                      

 ITERATION SUMMARY FOR THE INCREMENT:   1 TOTAL ITERATIONS, OF WHICH
   0 ARE SEVERE DISCONTINUITY ITERATIONS AND  1 ARE EQUILIBRIUM ITERATIONS.

 TIME INCREMENT COMPLETED  5.000E-02,  FRACTION OF STEP COMPLETED  0.841    
 STEP TIME COMPLETED       0.841    ,  TOTAL TIME COMPLETED         15.8    


  INCREMENT    21 STARTS. ATTEMPT NUMBER  1, TIME INCREMENT  5.000E-02

  NUMBER OF EQUATIONS =     1256     NUMBER OF FLOATING PT. OPERATIONS =  8.20E+06

     CHECK POINT   START OF SOLVER    

     CHECK POINT  END OF SOLVER       

       ELAPSED USER TIME (SEC)      =   0.0000    
       ELAPSED SYSTEM TIME (SEC)    =   0.0000    
       ELAPSED TOTAL CPU TIME (SEC) =   0.0000    
       ELAPSED WALLCLOCK TIME (SEC) =          0

               CONVERGENCE CHECKS FOR EQUILIBRIUM ITERATION     1


 AVERAGE FORCE                       381.       TIME AVG. FORCE        341.    
 LARGEST RESIDUAL FORCE            -0.311       AT NODE        190   DOF  2
   INSTANCE: Instance A                                                                      
 LARGEST INCREMENT OF DISP.        -4.167E-03   AT NODE        209   DOF  3
   INSTANCE: Instance A                                                                      
 LARGEST CORRECTION TO DISP.       -2.275E-04   AT NODE        209   DOF  3
   INSTANCE: Instance A                                                                      
 ESTIMATE OF DISP.    CORRECTION    8.624E-08
 FORCE     EQUILIB. ACCEPTED BASED ON SMALL RESIDUAL AND ESTIMATED CORRECTION

 AVERAGE MOMENT                      3.46       TIME AVG. MOMENT       2.93    
 LARGEST RESIDUAL MOMENT            1.321E-02   AT NODE         20   DOF  6
   INSTANCE: Instance A                                                                      
 LARGEST INCREMENT OF ROTATION      1.812E-02   AT NODE          1   DOF  4
   INSTANCE: Instance A                                                                      
 LARGEST CORRECTION TO ROTATION     5.602E-04   AT NODE        197   DOF  5
   INSTANCE: Instance A                                                                      
 ESTIMATE OF ROTATION CORRECTION    2.126E-06
 MOMENT    EQUILIB. ACCEPTED BASED ON SMALL RESIDUAL AND ESTIMATED CORRECTION

 COMPATIBILITY ERRORS:
    TYPE                NUMBER EXCEEDING TOLERANCE  MAXIMUM ERROR        IN ELEMENT
 BEAM AXIAL                          0                4.375E-09                181
   INSTANCE: Instance A                                                                      

 ITERATION SUMMARY FOR THE INCREMENT:   1 TOTAL ITERATIONS, OF WHICH
   0 ARE SEVERE DISCONTINUITY ITERATIONS AND  1 ARE EQUILIBRIUM ITERATIONS.

 TIME INCREMENT COMPLETED  5.000E-02,  FRACTION OF STEP COMPLETED  0.891    
 STEP TIME COMPLETED       0.891    ,  TOTAL TIME COMPLETED         15.9    


  INCREMENT    22 STARTS. ATTEMPT NUMBER  1, TIME INCREMENT  5.000E-02

  NUMBER OF EQUATIONS =     1256     NUMBER OF FLOATING PT. OPERATIONS =  8.20E+06

     CHECK POINT   START OF SOLVER    

     CHECK POINT  END OF SOLVER       

       ELAPSED USER TIME (SEC)      =   0.0000    
       ELAPSED SYSTEM TIME (SEC)    =   0.0000    
       ELAPSED TOTAL CPU TIME (SEC) =   0.0000    
       ELAPSED WALLCLOCK TIME (SEC) =          0

               CONVERGENCE CHECKS FOR EQUILIBRIUM ITERATION     1


 AVERAGE FORCE                       394.       TIME AVG. FORCE        344.    
 LARGEST RESIDUAL FORCE            -0.388       AT NODE        190   DOF  2
   INSTANCE: Instance A                                                                      
 LARGEST INCREMENT OF DISP.        -4.423E-03   AT NODE        209   DOF  3
   INSTANCE: Instance A                                                                      
 LARGEST CORRECTION TO DISP.       -2.555E-04   AT NODE        209   DOF  3
   INSTANCE: Instance A                                                                      
 ESTIMATE OF DISP.    CORRECTION    1.163E-07
 FORCE     EQUILIB. ACCEPTED BASED ON SMALL RESIDUAL AND ESTIMATED CORRECTION

 AVERAGE MOMENT                      3.55       TIME AVG. MOMENT       2.95    
 LARGEST RESIDUAL MOMENT            1.479E-02   AT NODE         20   DOF  6
   INSTANCE: Instance A                                                                      
 LARGEST INCREMENT OF ROTATION      1.852E-02   AT NODE          1   DOF  4
   INSTANCE: Instance A                                                                      
 LARGEST CORRECTION TO ROTATION     6.427E-04   AT NODE        197   DOF  5
   INSTANCE: Instance A                                                                      
          MOMENT    EQUILIBRIUM NOT ACHIEVED WITHIN TOLERANCE.

 COMPATIBILITY ERRORS:
    TYPE                NUMBER EXCEEDING TOLERANCE  MAXIMUM ERROR        IN ELEMENT
 BEAM AXIAL                          0                4.834E-09                181
   INSTANCE: Instance A                                                                      

  NUMBER OF EQUATIONS =     1256     NUMBER OF FLOATING PT. OPERATIONS =  8.20E+06

     CHECK POINT   START OF SOLVER    

     CHECK POINT  END OF SOLVER       

       ELAPSED USER TIME (SEC)      =   0.0000    
       ELAPSED SYSTEM TIME (SEC)    =   0.0000    
       ELAPSED TOTAL CPU TIME (SEC) =   0.0000    
       ELAPSED WALLCLOCK TIME (SEC) =          0

               CONVERGENCE CHECKS FOR EQUILIBRIUM ITERATION     2


 AVERAGE FORCE                       395.       TIME AVG. FORCE        344.    
 LARGEST RESIDUAL FORCE            -6.401E-03   AT NODE         20   DOF  3
   INSTANCE: Instance A                                                                      
 LARGEST INCREMENT OF DISP.        -4.433E-03   AT NODE        209   DOF  3
   INSTANCE: Instance A                                                                      
 LARGEST CORRECTION TO DISP.       -1.152E-05   AT NODE        114   DOF  1
   INSTANCE: Instance A                                                                      
          THE FORCE     EQUILIBRIUM EQUATIONS HAVE CONVERGED

 AVERAGE MOMENT                      3.56       TIME AVG. MOMENT       2.95    
 LARGEST RESIDUAL MOMENT            9.536E-05   AT NODE         21   DOF  6
   INSTANCE: Instance A                                                                      
 LARGEST INCREMENT OF ROTATION      1.846E-02   AT NODE          1   DOF  4
   INSTANCE: Instance A                                                                      
 LARGEST CORRECTION TO ROTATION     7.069E-05   AT NODE          1   DOF  6
   INSTANCE: Instance A                                                                      
          THE MOMENT    EQUILIBRIUM EQUATIONS HAVE CONVERGED

 COMPATIBILITY ERRORS:
    TYPE                NUMBER EXCEEDING TOLERANCE  MAXIMUM ERROR        IN ELEMENT
 BEAM AXIAL                          0                2.703E-10                181
   INSTANCE: Instance A                                                                      

 ITERATION SUMMARY FOR THE INCREMENT:   2 TOTAL ITERATIONS, OF WHICH
   0 ARE SEVERE DISCONTINUITY ITERATIONS AND  2 ARE EQUILIBRIUM ITERATIONS.

 TIME INCREMENT COMPLETED  5.000E-02,  FRACTION OF STEP COMPLETED  0.941    
 STEP TIME COMPLETED       0.941    ,  TOTAL TIME COMPLETED         15.9    


  INCREMENT    23 STARTS. ATTEMPT NUMBER  1, TIME INCREMENT  5.000E-02

  NUMBER OF EQUATIONS =     1256     NUMBER OF FLOATING PT. OPERATIONS =  8.20E+06

     CHECK POINT   START OF SOLVER    

     CHECK POINT  END OF SOLVER       

       ELAPSED USER TIME (SEC)      =   0.0000    
       ELAPSED SYSTEM TIME (SEC)    =   0.0000    
       ELAPSED TOTAL CPU TIME (SEC) =   0.0000    
       ELAPSED WALLCLOCK TIME (SEC) =          0

               CONVERGENCE CHECKS FOR EQUILIBRIUM ITERATION     1


 AVERAGE FORCE                       410.       TIME AVG. FORCE        347.    
 LARGEST RESIDUAL FORCE            -0.398       AT NODE        190   DOF  2
   INSTANCE: Instance A                                                                      
 LARGEST INCREMENT OF DISP.        -4.699E-03   AT NODE        209   DOF  3
   INSTANCE: Instance A                                                                      
 LARGEST CORRECTION TO DISP.       -2.658E-04   AT NODE        209   DOF  3
   INSTANCE: Instance A                                                                      
 ESTIMATE OF DISP.    CORRECTION    1.202E-07
 FORCE     EQUILIB. ACCEPTED BASED ON SMALL RESIDUAL AND ESTIMATED CORRECTION

 AVERAGE MOMENT                      3.66       TIME AVG. MOMENT       2.98    
 LARGEST RESIDUAL MOMENT            1.564E-02   AT NODE         20   DOF  6
   INSTANCE: Instance A                                                                      
 LARGEST INCREMENT OF ROTATION      1.896E-02   AT NODE          1   DOF  4
   INSTANCE: Instance A                                                                      
 LARGEST CORRECTION TO ROTATION     7.445E-04   AT NODE        197   DOF  5
   INSTANCE: Instance A                                                                      
          MOMENT    EQUILIBRIUM NOT ACHIEVED WITHIN TOLERANCE.

 COMPATIBILITY ERRORS:
    TYPE                NUMBER EXCEEDING TOLERANCE  MAXIMUM ERROR        IN ELEMENT
 BEAM AXIAL                          0                1.115E-08                181
   INSTANCE: Instance A                                                                      

  NUMBER OF EQUATIONS =     1256     NUMBER OF FLOATING PT. OPERATIONS =  8.20E+06

     CHECK POINT   START OF SOLVER    

     CHECK POINT  END OF SOLVER       

       ELAPSED USER TIME (SEC)      =   0.0000    
       ELAPSED SYSTEM TIME (SEC)    =   0.0000    
       ELAPSED TOTAL CPU TIME (SEC) =   0.0000    
       ELAPSED WALLCLOCK TIME (SEC) =          0

               CONVERGENCE CHECKS FOR EQUILIBRIUM ITERATION     2


 AVERAGE FORCE                       411.       TIME AVG. FORCE        347.    
 LARGEST RESIDUAL FORCE            -6.304E-03   AT NODE         20   DOF  3
   INSTANCE: Instance A                                                                      
 LARGEST INCREMENT OF DISP.        -4.709E-03   AT NODE        209   DOF  3
   INSTANCE: Instance A                                                                      
 LARGEST CORRECTION TO DISP.       -1.787E-05   AT NODE        114   DOF  1
   INSTANCE: Instance A                                                                      
          THE FORCE     EQUILIBRIUM EQUATIONS HAVE CONVERGED

 AVERAGE MOMENT                      3.67       TIME AVG. MOMENT       2.99    
 LARGEST RESIDUAL MOMENT           -1.238E-04   AT NODE         98   DOF  6
   INSTANCE: Instance A                                                                      
 LARGEST INCREMENT OF ROTATION      1.889E-02   AT NODE          1   DOF  4
   INSTANCE: Instance A                                                                      
 LARGEST CORRECTION TO ROTATION     8.534E-05   AT NODE          1   DOF  6
   INSTANCE: Instance A                                                                      
          THE MOMENT    EQUILIBRIUM EQUATIONS HAVE CONVERGED

 COMPATIBILITY ERRORS:
    TYPE                NUMBER EXCEEDING TOLERANCE  MAXIMUM ERROR        IN ELEMENT
 BEAM AXIAL                          0                6.568E-10                181
   INSTANCE: Instance A                                                                      

 ITERATION SUMMARY FOR THE INCREMENT:   2 TOTAL ITERATIONS, OF WHICH
   0 ARE SEVERE DISCONTINUITY ITERATIONS AND  2 ARE EQUILIBRIUM ITERATIONS.

 TIME INCREMENT COMPLETED  5.000E-02,  FRACTION OF STEP COMPLETED  0.991    
 STEP TIME COMPLETED       0.991    ,  TOTAL TIME COMPLETED         16.0    


  INCREMENT    24 STARTS. ATTEMPT NUMBER  1, TIME INCREMENT  8.750E-03

  NUMBER OF EQUATIONS =     1256     NUMBER OF FLOATING PT. OPERATIONS =  8.20E+06

     CHECK POINT   START OF SOLVER    

     CHECK POINT  END OF SOLVER       

       ELAPSED USER TIME (SEC)      =   0.0000    
       ELAPSED SYSTEM TIME (SEC)    =   0.0000    
       ELAPSED TOTAL CPU TIME (SEC) =   0.0000    
       ELAPSED WALLCLOCK TIME (SEC) =          0

               CONVERGENCE CHECKS FOR EQUILIBRIUM ITERATION     1


 AVERAGE FORCE                       415.       TIME AVG. FORCE        349.    
 LARGEST RESIDUAL FORCE            -1.491E-02   AT NODE        198   DOF  1
   INSTANCE: Instance A                                                                      
 LARGEST INCREMENT OF DISP.        -8.558E-04   AT NODE        209   DOF  3
   INSTANCE: Instance A                                                                      
 LARGEST CORRECTION TO DISP.       -3.177E-05   AT NODE        209   DOF  3
   INSTANCE: Instance A                                                                      
 ESTIMATE OF DISP.    CORRECTION    5.055E-09
 FORCE     EQUILIB. ACCEPTED BASED ON SMALL RESIDUAL AND ESTIMATED CORRECTION

 AVERAGE MOMENT                      3.69       TIME AVG. MOMENT       3.01    
 LARGEST RESIDUAL MOMENT            1.820E-03   AT NODE         20   DOF  6
   INSTANCE: Instance A                                                                      
 LARGEST INCREMENT OF ROTATION      3.334E-03   AT NODE          1   DOF  4
   INSTANCE: Instance A                                                                      
 LARGEST CORRECTION TO ROTATION     1.892E-04   AT NODE          2   DOF  6
   INSTANCE: Instance A                                                                      
 ESTIMATE OF ROTATION CORRECTION    8.971E-07
 MOMENT    EQUILIB. ACCEPTED BASED ON SMALL RESIDUAL AND ESTIMATED CORRECTION

 COMPATIBILITY ERRORS:
    TYPE                NUMBER EXCEEDING TOLERANCE  MAXIMUM ERROR        IN ELEMENT
 BEAM AXIAL                          0                3.431E-10                181
   INSTANCE: Instance A                                                                      

 ITERATION SUMMARY FOR THE INCREMENT:   1 TOTAL ITERATIONS, OF WHICH
   0 ARE SEVERE DISCONTINUITY ITERATIONS AND  1 ARE EQUILIBRIUM ITERATIONS.

 TIME INCREMENT COMPLETED  8.750E-03,  FRACTION OF STEP COMPLETED   1.00    
 STEP TIME COMPLETED        1.00    ,  TOTAL TIME COMPLETED         16.0    


          THE ANALYSIS HAS BEEN COMPLETED



     ANALYSIS SUMMARY:
     TOTAL OF        384  INCREMENTS
                       0  CUTBACKS IN AUTOMATIC INCREMENTATION
                     506  ITERATIONS INCLUDING CONTACT ITERATIONS IF PRESENT
                     506  PASSES THROUGH THE EQUATION SOLVER OF WHICH 
                     506  INVOLVE MATRIX DECOMPOSITION, INCLUDING
                       0  DECOMPOSITION(S) OF THE MASS MATRIX
                       1  REORDERING OF EQUATIONS TO MINIMIZE WAVEFRONT
                       0  ADDITIONAL RESIDUAL EVALUATIONS FOR LINE SEARCHES
                       0  ADDITIONAL OPERATOR EVALUATIONS FOR LINE SEARCHES
                       8  WARNING MESSAGES DURING USER INPUT PROCESSING
                       0  WARNING MESSAGES DURING ANALYSIS
                       0  ANALYSIS WARNINGS ARE NUMERICAL PROBLEM MESSAGES
                       0  ANALYSIS WARNINGS ARE NEGATIVE EIGENVALUE MESSAGES
                       0  ERROR MESSAGES



     JOB TIME SUMMARY
       USER TIME (SEC)      =   30.300    
       SYSTEM TIME (SEC)    =   4.0000    
       TOTAL CPU TIME (SEC) =   34.300    
       WALLCLOCK TIME (SEC) =         37
