* Heading
**Author : Lionel du Peloux
**email : lionel.dupeloux@gmail.com
**date : 16/12/2016 10:55:26
**node : 03
**
*Preprint, echo=NO, model=NO, history=NO, contact=NO
**
** =============================================================================
** PART
** =============================================================================
**
*Part, name="Part A"
*Node, nset="shell"
   1,   -0.300000,    0.000000,    0.000000
   2,   -0.300000,    0.004723,    0.051214
   3,   -0.300000,    0.018763,    0.100696
   4,   -0.300000,    0.041561,    0.146788
   5,   -0.300000,    0.072447,    0.187900
   6,   -0.300000,    0.110305,    0.222719
   7,   -0.300000,    0.153905,    0.250000
   8,   -0.300000,    0.203905,    0.250000
   9,   -0.300000,    0.253905,    0.250000
  10,   -0.300000,    0.303905,    0.250000
  11,   -0.300000,    0.353905,    0.250000
  12,   -0.300000,    0.403905,    0.250000
  13,   -0.300000,    0.453905,    0.250000
  14,   -0.300000,    0.503905,    0.250000
  15,   -0.300000,    0.553905,    0.250000
  16,   -0.300000,    0.603905,    0.250000
  17,   -0.300000,    0.653905,    0.250000
  18,   -0.300000,    0.703905,    0.250000
  19,   -0.300000,    0.753905,    0.250000
  20,   -0.251800,    0.046225,    0.000000
** ... 189 like lines cut
*Node, nset="A1"
   210,   -0.300000,    0.000000,    0.000000
   211,    0.300000,    0.153905,    0.250000
*Node, nset="A2"
   212,    0.300000,    0.000000,    0.000000
   213,   -0.300000,    0.153905,    0.250000
*Element, type=S4R, elset="shell"
1,1,2,21,20
2,2,3,22,21
3,3,4,23,22
4,4,5,24,23
5,5,6,25,24
6,6,7,26,25
7,7,8,27,26
8,8,9,28,27
9,9,10,29,28
10,10,11,30,29
11,11,12,31,30
12,12,13,32,31
13,13,14,33,32
14,14,15,34,33
15,15,16,35,34
16,16,17,36,35
17,17,18,37,36
18,18,19,38,37
19,20,21,40,39
20,21,22,41,40
** ... 160 like lines cut
*Element, type=T3D2H, elset="A1"
   181,   210,   211
*Element, type=T3D2H, elset="A2"
   182,   212,   213
*Elset, elset="shell-1", internal
1
*Elset, elset="shell-2", internal
2
*Elset, elset="shell-3", internal
3
*Elset, elset="shell-4", internal
4
*Elset, elset="shell-5", internal
5
*Elset, elset="shell-6", internal
6
*Elset, elset="shell-7", internal
7
*Elset, elset="shell-8", internal
8
*Elset, elset="shell-9", internal
9
*Elset, elset="shell-10", internal
10
*Elset, elset="shell-11", internal
11
*Elset, elset="shell-12", internal
12
*Elset, elset="shell-13", internal
13
*Elset, elset="shell-14", internal
14
*Elset, elset="shell-15", internal
15
*Elset, elset="shell-16", internal
16
*Elset, elset="shell-17", internal
17
*Elset, elset="shell-18", internal
18
*Elset, elset="shell-19", internal
19
*Elset, elset="shell-20", internal
** ... 321 like lines cut
*Nset, nset="A1-1-shell"
1
*Nset, nset="A1-1-beam"
210
*Nset, nset="A1-2-shell"
197
*Nset, nset="A1-2-beam"
211
*Nset, nset="A2-1-shell"
191
*Nset, nset="A2-1-beam"
212
*Nset, nset="A2-2-shell"
7
*Nset, nset="A2-2-beam"
213
*Nset, nset="BC"
99
*Shell Section, elset="shell-1", material="shell-1"
1.00e-002, 5
*Shell Section, elset="shell-2", material="shell-2"
1.00e-002, 5
*Shell Section, elset="shell-3", material="shell-3"
1.00e-002, 5
*Shell Section, elset="shell-4", material="shell-4"
1.00e-002, 5
*Shell Section, elset="shell-5", material="shell-5"
1.00e-002, 5
*Shell Section, elset="shell-6", material="shell-6"
1.00e-002, 5
*Shell Section, elset="shell-7", material="shell-7"
1.00e-002, 5
*Shell Section, elset="shell-8", material="shell-8"
1.00e-002, 5
*Shell Section, elset="shell-9", material="shell-9"
1.00e-002, 5
*Shell Section, elset="shell-10", material="shell-10"
1.00e-002, 5
*Shell Section, elset="shell-11", material="shell-11"
1.00e-002, 5
*Shell Section, elset="shell-12", material="shell-12"
1.00e-002, 5
*Shell Section, elset="shell-13", material="shell-13"
1.00e-002, 5
*Shell Section, elset="shell-14", material="shell-14"
1.00e-002, 5
*Shell Section, elset="shell-15", material="shell-15"
1.00e-002, 5
*Shell Section, elset="shell-16", material="shell-16"
1.00e-002, 5
*Shell Section, elset="shell-17", material="shell-17"
1.00e-002, 5
*Shell Section, elset="shell-18", material="shell-18"
1.00e-002, 5
*Shell Section, elset="shell-19", material="shell-19"
1.00e-002, 5
*Shell Section, elset="shell-20", material="shell-20"
** ... 321 like lines cut
*Solid Section, elset="A1", material="actuator-1"
3.14e-002
*Solid Section, elset="A2", material="actuator-2"
3.14e-002
*End Part
**
** =============================================================================
** ASSEMBLY
** =============================================================================
**
*Assembly, name=Assembly
**
*Instance, name="Instance A", part="Part A"
*End Instance
**
*Surface, type=NODE, name="A1-1-shell", internal
"Instance A"."A1-1-shell", 1.
*Surface, type=NODE, name="A1-1-beam", internal
"Instance A"."A1-1-beam", 1.
*Tie, name="A1-1", adjust=no, no rotation
"A1-1-shell", "A1-1-beam"
*Surface, type=NODE, name="A1-2-shell", internal
"Instance A"."A1-2-shell", 1.
*Surface, type=NODE, name="A1-2-beam", internal
"Instance A"."A1-2-beam", 1.
*Tie, name="A1-2", adjust=no, no rotation
"A1-2-shell", "A1-2-beam"
*Surface, type=NODE, name="A2-1-shell", internal
"Instance A"."A2-1-shell", 1.
*Surface, type=NODE, name="A2-1-beam", internal
"Instance A"."A2-1-beam", 1.
*Tie, name="A2-1", adjust=no, no rotation
"A2-1-shell", "A2-1-beam"
*Surface, type=NODE, name="A2-2-shell", internal
"Instance A"."A2-2-shell", 1.
*Surface, type=NODE, name="A2-2-beam", internal
"Instance A"."A2-2-beam", 1.
*Tie, name="A2-2", adjust=no, no rotation
"A2-2-shell", "A2-2-beam"
*End Assembly
**
** =============================================================================
** MATERIALS
** =============================================================================
**
*Material, name="shell-1"
*Density
1.00,
*Elastic
5.000e+009, 0.30
*Material, name="shell-2"
*Density
1.00,
*Elastic
5.000e+009, 0.30
*Material, name="shell-3"
*Density
1.00,
*Elastic
5.000e+009, 0.30
*Material, name="shell-4"
*Density
1.00,
*Elastic
5.000e+009, 0.30
*Material, name="shell-5"
*Density
1.00,
*Elastic
5.000e+009, 0.30
*Material, name="shell-6"
*Density
1.00,
*Elastic
5.000e+009, 0.30
*Material, name="shell-7"
*Density
1.00,
*Elastic
5.000e+009, 0.30
*Material, name="shell-8"
*Density
1.00,
*Elastic
5.000e+009, 0.30
*Material, name="shell-9"
*Density
1.00,
*Elastic
5.000e+009, 0.30
*Material, name="shell-10"
*Density
1.00,
*Elastic
5.000e+009, 0.30
*Material, name="shell-11"
*Density
1.00,
*Elastic
5.000e+009, 0.30
*Material, name="shell-12"
*Density
1.00,
*Elastic
5.000e+009, 0.30
*Material, name="shell-13"
*Density
1.00,
*Elastic
5.000e+009, 0.30
*Material, name="shell-14"
*Density
1.00,
*Elastic
5.000e+009, 0.30
*Material, name="shell-15"
*Density
1.00,
*Elastic
5.000e+009, 0.30
*Material, name="shell-16"
*Density
1.00,
*Elastic
5.000e+009, 0.30
*Material, name="shell-17"
*Density
1.00,
*Elastic
5.000e+009, 0.30
*Material, name="shell-18"
*Density
1.00,
*Elastic
5.000e+009, 0.30
*Material, name="shell-19"
*Density
1.00,
*Elastic
5.000e+009, 0.30
*Material, name="shell-20"
*Density
1.00,
*Elastic
5.000e+009, 0.30
*Material, name="shell-21"
*Density
1.00,
*Elastic
5.000e+009, 0.30
*Material, name="shell-22"
*Density
1.00,
*Elastic
5.000e+009, 0.30
*Material, name="shell-23"
*Density
1.00,
*Elastic
5.000e+009, 0.30
*Material, name="shell-24"
*Density
1.00,
*Elastic
5.000e+009, 0.30
*Material, name="shell-25"
*Density
1.00,
*Elastic
5.000e+009, 0.30
*Material, name="shell-26"
*Density
1.00,
*Elastic
5.000e+009, 0.30
*Material, name="shell-27"
*Density
1.00,
*Elastic
5.000e+009, 0.30
*Material, name="shell-28"
*Density
1.00,
*Elastic
5.000e+009, 0.30
*Material, name="shell-29"
*Density
1.00,
*Elastic
5.000e+009, 0.30
*Material, name="shell-30"
*Density
1.00,
*Elastic
5.000e+009, 0.30
*Material, name="shell-31"
*Density
1.00,
*Elastic
5.000e+009, 0.30
*Material, name="shell-32"
*Density
1.00,
*Elastic
5.000e+009, 0.30
*Material, name="shell-33"
*Density
1.00,
*Elastic
5.000e+009, 0.30
*Material, name="shell-34"
*Density
1.00,
*Elastic
5.000e+009, 0.30
*Material, name="shell-35"
*Density
1.00,
*Elastic
5.000e+009, 0.30
*Material, name="shell-36"
*Density
1.00,
*Elastic
5.000e+009, 0.30
*Material, name="shell-37"
*Density
1.00,
*Elastic
5.000e+009, 0.30
*Material, name="shell-38"
*Density
1.00,
*Elastic
5.000e+009, 0.30
*Material, name="shell-39"
*Density
1.00,
*Elastic
5.000e+009, 0.30
*Material, name="shell-40"
*Density
1.00,
*Elastic
5.000e+009, 0.30
*Material, name="shell-41"
*Density
1.00,
*Elastic
5.000e+009, 0.30
*Material, name="shell-42"
*Density
1.00,
*Elastic
5.000e+009, 0.30
*Material, name="shell-43"
*Density
1.00,
*Elastic
5.000e+009, 0.30
*Material, name="shell-44"
*Density
1.00,
*Elastic
5.000e+009, 0.30
*Material, name="shell-45"
*Density
1.00,
*Elastic
5.000e+009, 0.30
*Material, name="shell-46"
*Density
1.00,
*Elastic
5.000e+009, 0.30
*Material, name="shell-47"
*Density
1.00,
*Elastic
5.000e+009, 0.30
*Material, name="shell-48"
*Density
1.00,
*Elastic
5.000e+009, 0.30
*Material, name="shell-49"
*Density
1.00,
*Elastic
5.000e+009, 0.30
*Material, name="shell-50"
*Density
1.00,
*Elastic
5.000e+009, 0.30
*Material, name="shell-51"
*Density
1.00,
*Elastic
5.000e+009, 0.30
*Material, name="shell-52"
*Density
1.00,
*Elastic
5.000e+009, 0.30
*Material, name="shell-53"
*Density
1.00,
*Elastic
5.000e+009, 0.30
*Material, name="shell-54"
*Density
1.00,
*Elastic
5.000e+009, 0.30
*Material, name="shell-55"
*Density
1.00,
*Elastic
5.000e+009, 0.30
*Material, name="shell-56"
*Density
1.00,
*Elastic
5.000e+009, 0.30
*Material, name="shell-57"
*Density
1.00,
*Elastic
5.000e+009, 0.30
*Material, name="shell-58"
*Density
1.00,
*Elastic
5.000e+009, 0.30
*Material, name="shell-59"
*Density
1.00,
*Elastic
5.000e+009, 0.30
*Material, name="shell-60"
*Density
1.00,
*Elastic
5.000e+009, 0.30
*Material, name="shell-61"
*Density
1.00,
*Elastic
5.000e+009, 0.30
*Material, name="shell-62"
*Density
1.00,
*Elastic
5.000e+009, 0.30
*Material, name="shell-63"
*Density
1.00,
*Elastic
5.000e+009, 0.30
*Material, name="shell-64"
*Density
1.00,
*Elastic
5.000e+009, 0.30
*Material, name="shell-65"
*Density
1.00,
*Elastic
5.000e+009, 0.30
*Material, name="shell-66"
*Density
1.00,
*Elastic
5.000e+009, 0.30
*Material, name="shell-67"
*Density
1.00,
*Elastic
5.000e+009, 0.30
*Material, name="shell-68"
*Density
1.00,
*Elastic
5.000e+009, 0.30
*Material, name="shell-69"
*Density
1.00,
*Elastic
5.000e+009, 0.30
*Material, name="shell-70"
*Density
1.00,
*Elastic
5.000e+009, 0.30
*Material, name="shell-71"
*Density
1.00,
*Elastic
5.000e+009, 0.30
*Material, name="shell-72"
*Density
1.00,
*Elastic
5.000e+009, 0.30
*Material, name="shell-73"
*Density
1.00,
*Elastic
5.000e+009, 0.30
*Material, name="shell-74"
*Density
1.00,
*Elastic
5.000e+009, 0.30
*Material, name="shell-75"
*Density
1.00,
*Elastic
5.000e+009, 0.30
*Material, name="shell-76"
*Density
1.00,
*Elastic
5.000e+009, 0.30
*Material, name="shell-77"
*Density
1.00,
*Elastic
5.000e+009, 0.30
*Material, name="shell-78"
*Density
1.00,
*Elastic
5.000e+009, 0.30
*Material, name="shell-79"
*Density
1.00,
*Elastic
5.000e+009, 0.30
*Material, name="shell-80"
*Density
1.00,
*Elastic
5.000e+009, 0.30
*Material, name="shell-81"
*Density
1.00,
*Elastic
5.000e+009, 0.30
*Material, name="shell-82"
*Density
1.00,
*Elastic
5.000e+009, 0.30
*Material, name="shell-83"
*Density
1.00,
*Elastic
5.000e+009, 0.30
*Material, name="shell-84"
*Density
1.00,
*Elastic
5.000e+009, 0.30
*Material, name="shell-85"
*Density
1.00,
*Elastic
5.000e+009, 0.30
*Material, name="shell-86"
*Density
1.00,
*Elastic
5.000e+009, 0.30
*Material, name="shell-87"
*Density
1.00,
*Elastic
5.000e+009, 0.30
*Material, name="shell-88"
*Density
1.00,
*Elastic
5.000e+009, 0.30
*Material, name="shell-89"
*Density
1.00,
*Elastic
5.000e+009, 0.30
*Material, name="shell-90"
*Density
1.00,
*Elastic
5.000e+009, 0.30
*Material, name="shell-91"
*Density
1.00,
*Elastic
5.000e+009, 0.30
*Material, name="shell-92"
*Density
1.00,
*Elastic
5.000e+009, 0.30
*Material, name="shell-93"
*Density
1.00,
*Elastic
5.000e+009, 0.30
*Material, name="shell-94"
*Density
1.00,
*Elastic
5.000e+009, 0.30
*Material, name="shell-95"
*Density
1.00,
*Elastic
5.000e+009, 0.30
*Material, name="shell-96"
*Density
1.00,
*Elastic
5.000e+009, 0.30
*Material, name="shell-97"
*Density
1.00,
*Elastic
5.000e+009, 0.30
*Material, name="shell-98"
*Density
1.00,
*Elastic
5.000e+009, 0.30
*Material, name="shell-99"
*Density
1.00,
*Elastic
5.000e+009, 0.30
*Material, name="shell-100"
*Density
1.00,
*Elastic
5.000e+009, 0.30
*Material, name="shell-101"
*Density
1.00,
*Elastic
5.000e+009, 0.30
*Material, name="shell-102"
*Density
1.00,
*Elastic
5.000e+009, 0.30
*Material, name="shell-103"
*Density
1.00,
*Elastic
5.000e+009, 0.30
*Material, name="shell-104"
*Density
1.00,
*Elastic
5.000e+009, 0.30
*Material, name="shell-105"
*Density
1.00,
*Elastic
5.000e+009, 0.30
*Material, name="shell-106"
*Density
1.00,
*Elastic
5.000e+009, 0.30
*Material, name="shell-107"
*Density
1.00,
*Elastic
5.000e+009, 0.30
*Material, name="shell-108"
*Density
1.00,
*Elastic
5.000e+009, 0.30
*Material, name="shell-109"
*Density
1.00,
*Elastic
5.000e+009, 0.30
*Material, name="shell-110"
*Density
1.00,
*Elastic
5.000e+009, 0.30
*Material, name="shell-111"
*Density
1.00,
*Elastic
5.000e+009, 0.30
*Material, name="shell-112"
*Density
1.00,
*Elastic
5.000e+009, 0.30
*Material, name="shell-113"
*Density
1.00,
*Elastic
5.000e+009, 0.30
*Material, name="shell-114"
*Density
1.00,
*Elastic
5.000e+009, 0.30
*Material, name="shell-115"
*Density
1.00,
*Elastic
5.000e+009, 0.30
*Material, name="shell-116"
*Density
1.00,
*Elastic
5.000e+009, 0.30
*Material, name="shell-117"
*Density
1.00,
*Elastic
5.000e+009, 0.30
*Material, name="shell-118"
*Density
1.00,
*Elastic
5.000e+009, 0.30
*Material, name="shell-119"
*Density
1.00,
*Elastic
5.000e+009, 0.30
*Material, name="shell-120"
*Density
1.00,
*Elastic
5.000e+009, 0.30
*Material, name="shell-121"
*Density
1.00,
*Elastic
5.000e+009, 0.30
*Material, name="shell-122"
*Density
1.00,
*Elastic
5.000e+009, 0.30
*Material, name="shell-123"
*Density
1.00,
*Elastic
5.000e+009, 0.30
*Material, name="shell-124"
*Density
1.00,
*Elastic
5.000e+009, 0.30
*Material, name="shell-125"
*Density
1.00,
*Elastic
5.000e+009, 0.30
*Material, name="shell-126"
*Density
1.00,
*Elastic
5.000e+009, 0.30
*Material, name="shell-127"
*Density
1.00,
*Elastic
5.000e+009, 0.30
*Material, name="shell-128"
*Density
1.00,
*Elastic
5.000e+009, 0.30
*Material, name="shell-129"
*Density
1.00,
*Elastic
5.000e+009, 0.30
*Material, name="shell-130"
*Density
1.00,
*Elastic
5.000e+009, 0.30
*Material, name="shell-131"
*Density
1.00,
*Elastic
5.000e+009, 0.30
*Material, name="shell-132"
*Density
1.00,
*Elastic
5.000e+009, 0.30
*Material, name="shell-133"
*Density
1.00,
*Elastic
5.000e+009, 0.30
*Material, name="shell-134"
*Density
1.00,
*Elastic
5.000e+009, 0.30
*Material, name="shell-135"
*Density
1.00,
*Elastic
5.000e+009, 0.30
*Material, name="shell-136"
*Density
1.00,
*Elastic
5.000e+009, 0.30
*Material, name="shell-137"
*Density
1.00,
*Elastic
5.000e+009, 0.30
*Material, name="shell-138"
*Density
1.00,
*Elastic
5.000e+009, 0.30
*Material, name="shell-139"
*Density
1.00,
*Elastic
5.000e+009, 0.30
*Material, name="shell-140"
*Density
1.00,
*Elastic
5.000e+009, 0.30
*Material, name="shell-141"
*Density
1.00,
*Elastic
5.000e+009, 0.30
*Material, name="shell-142"
*Density
1.00,
*Elastic
5.000e+009, 0.30
*Material, name="shell-143"
*Density
1.00,
*Elastic
5.000e+009, 0.30
*Material, name="shell-144"
*Density
1.00,
*Elastic
5.000e+009, 0.30
*Material, name="shell-145"
*Density
1.00,
*Elastic
5.000e+009, 0.30
*Material, name="shell-146"
*Density
1.00,
*Elastic
5.000e+009, 0.30
*Material, name="shell-147"
*Density
1.00,
*Elastic
5.000e+009, 0.30
*Material, name="shell-148"
*Density
1.00,
*Elastic
5.000e+009, 0.30
*Material, name="shell-149"
*Density
1.00,
*Elastic
5.000e+009, 0.30
*Material, name="shell-150"
*Density
1.00,
*Elastic
5.000e+009, 0.30
*Material, name="shell-151"
*Density
1.00,
*Elastic
5.000e+009, 0.30
*Material, name="shell-152"
*Density
1.00,
*Elastic
5.000e+009, 0.30
*Material, name="shell-153"
*Density
1.00,
*Elastic
5.000e+009, 0.30
*Material, name="shell-154"
*Density
1.00,
*Elastic
5.000e+009, 0.30
*Material, name="shell-155"
*Density
1.00,
*Elastic
5.000e+009, 0.30
*Material, name="shell-156"
*Density
1.00,
*Elastic
5.000e+009, 0.30
*Material, name="shell-157"
*Density
1.00,
*Elastic
5.000e+009, 0.30
*Material, name="shell-158"
*Density
1.00,
*Elastic
5.000e+009, 0.30
*Material, name="shell-159"
*Density
1.00,
*Elastic
5.000e+009, 0.30
*Material, name="shell-160"
*Density
1.00,
*Elastic
5.000e+009, 0.30
*Material, name="shell-161"
*Density
1.00,
*Elastic
5.000e+009, 0.30
*Material, name="shell-162"
*Density
1.00,
*Elastic
5.000e+009, 0.30
*Material, name="shell-163"
*Density
1.00,
*Elastic
5.000e+009, 0.30
*Material, name="shell-164"
*Density
1.00,
*Elastic
5.000e+009, 0.30
*Material, name="shell-165"
*Density
1.00,
*Elastic
5.000e+009, 0.30
*Material, name="shell-166"
*Density
1.00,
*Elastic
5.000e+009, 0.30
*Material, name="shell-167"
*Density
1.00,
*Elastic
5.000e+009, 0.30
*Material, name="shell-168"
*Density
1.00,
*Elastic
5.000e+009, 0.30
*Material, name="shell-169"
*Density
1.00,
*Elastic
5.000e+009, 0.30
*Material, name="shell-170"
*Density
1.00,
*Elastic
5.000e+009, 0.30
*Material, name="shell-171"
*Density
1.00,
*Elastic
5.000e+009, 0.30
*Material, name="shell-172"
*Density
1.00,
*Elastic
5.000e+009, 0.30
*Material, name="shell-173"
*Density
1.00,
*Elastic
5.000e+009, 0.30
*Material, name="shell-174"
*Density
1.00,
*Elastic
5.000e+009, 0.30
*Material, name="shell-175"
*Density
1.00,
*Elastic
5.000e+009, 0.30
*Material, name="shell-176"
*Density
1.00,
*Elastic
5.000e+009, 0.30
*Material, name="shell-177"
*Density
1.00,
*Elastic
5.000e+009, 0.30
*Material, name="shell-178"
*Density
1.00,
*Elastic
5.000e+009, 0.30
*Material, name="shell-179"
*Density
1.00,
*Elastic
5.000e+009, 0.30
*Material, name="shell-180"
*Density
1.00,
*Elastic
5.000e+009, 0.30
*Material, name="actuator-1"
*Density
8.00,
*Elastic
2.100e+011, 0.30
*Expansion
1.497e-003,
*Material, name="actuator-2"
*Density
8.00,
*Elastic
2.100e+011, 0.30
*Expansion
1.497e-003,
**
** =============================================================================
** BOUDARY CONDITIONS
** =============================================================================
**
*Boundary
"Instance A"."BC", ENCASTRE
