1

   Abaqus 6.12-1                                  Date 16-déc.-2016   Time 10:21:00
   For use by  under license from Dassault Systemes or its subsidiary.

                                                                                 
                                                                                 
 STEP    1     INCREMENT     1     STEP TIME    0.00    


                        S T E P       1     S T A T I C   A N A L Y S I S


                                                                                          

     AUTOMATIC TIME CONTROL WITH -
          A SUGGESTED INITIAL TIME INCREMENT OF                1.000E-02
          AND A TOTAL TIME PERIOD OF                            1.00    
          THE MINIMUM TIME INCREMENT ALLOWED IS                1.000E-06
          THE MAXIMUM TIME INCREMENT ALLOWED IS                5.000E-02

     LINEAR EQUATION SOLVER TYPE         DIRECT SPARSE

 CONVERGENCE TOLERANCE PARAMETERS FOR FORCE    
     CRITERION FOR RESIDUAL FORCE     FOR A NONLINEAR PROBLEM          5.000E-03
     CRITERION FOR DISP.    CORRECTION IN A NONLINEAR PROBLEM          1.000E-02
     INITIAL VALUE OF TIME AVERAGE FORCE                               1.000E-02
     AVERAGE FORCE     IS TIME AVERAGE FORCE    
     ALTERNATE CRIT. FOR RESIDUAL FORCE     FOR A NONLINEAR PROBLEM    2.000E-02
     CRITERION FOR ZERO FORCE     RELATIVE TO TIME AVRG. FORCE         1.000E-05
     CRITERION FOR RESIDUAL FORCE     WHEN THERE IS ZERO FLUX          1.000E-05
     CRITERION FOR DISP.    CORRECTION WHEN THERE IS ZERO FLUX         1.000E-03
     CRITERION FOR RESIDUAL FORCE     FOR A LINEAR INCREMENT           1.000E-08
     FIELD CONVERSION RATIO                                             1.00    
     CRITERION FOR ZERO FORCE     REL. TO TIME AVRG. MAX. FORCE        1.000E-05
     CRITERION FOR ZERO DISP.    RELATIVE TO CHARACTERISTIC LENGTH     1.000E-08

 CONVERGENCE TOLERANCE PARAMETERS FOR MOMENT   
     CRITERION FOR RESIDUAL MOMENT    FOR A NONLINEAR PROBLEM          5.000E-03
     CRITERION FOR ROTATION CORRECTION IN A NONLINEAR PROBLEM          1.000E-02
     INITIAL VALUE OF TIME AVERAGE MOMENT                              1.000E-02
     AVERAGE MOMENT    IS TIME AVERAGE MOMENT   
     ALTERNATE CRIT. FOR RESIDUAL MOMENT    FOR A NONLINEAR PROBLEM    2.000E-02
     CRITERION FOR ZERO MOMENT    RELATIVE TO TIME AVRG. MOMENT        1.000E-05
     CRITERION FOR RESIDUAL MOMENT    WHEN THERE IS ZERO FLUX          1.000E-05
     CRITERION FOR ROTATION CORRECTION WHEN THERE IS ZERO FLUX         1.000E-03
     CRITERION FOR RESIDUAL MOMENT    FOR A LINEAR INCREMENT           1.000E-08
     FIELD CONVERSION RATIO                                             1.00    
     CRITERION FOR ZERO MOMENT    REL. TO TIME AVRG. MAX. MOMENT       1.000E-05

     VOLUMETRIC STRAIN COMPATIBILITY TOLERANCE FOR HYBRID SOLIDS       1.000E-05
     AXIAL STRAIN COMPATIBILITY TOLERANCE FOR HYBRID BEAMS             1.000E-05
     TRANS. SHEAR STRAIN COMPATIBILITY TOLERANCE FOR HYBRID BEAMS      1.000E-05
     SOFT CONTACT CONSTRAINT COMPATIBILITY TOLERANCE FOR P>P0          5.000E-03
     SOFT CONTACT CONSTRAINT COMPATIBILITY TOLERANCE FOR P=0.0         0.100    
     CONTACT FORCE ERROR TOLERANCE FOR CONVERT SDI=YES                 1.00    
     DISPLACEMENT COMPATIBILITY TOLERANCE FOR DCOUP ELEMENTS           1.000E-05
     ROTATION COMPATIBILITY TOLERANCE FOR DCOUP ELEMENTS               1.000E-05

 EQUILIBRIUM WILL BE CHECKED FOR SEVERE DISCONTINUITY ITERATIONS

 TIME INCREMENTATION CONTROL PARAMETERS:
     FIRST EQUILIBRIUM ITERATION FOR CONSECUTIVE DIVERGENCE CHECK              4
     EQUILIBRIUM ITERATION AT WHICH LOG. CONVERGENCE RATE CHECK BEGINS         8
     EQUILIBRIUM ITERATION AFTER WHICH ALTERNATE RESIDUAL IS USED              9
     MAXIMUM EQUILIBRIUM ITERATIONS ALLOWED                                   16
     EQUILIBRIUM ITERATION COUNT FOR CUT-BACK IN NEXT INCREMENT               10
     MAXIMUM EQUILIB. ITERS IN TWO INCREMENTS FOR TIME INCREMENT INCREASE      4
     MAXIMUM ITERATIONS FOR SEVERE DISCONTINUITIES                            50
     MAXIMUM CUT-BACKS ALLOWED IN AN INCREMENT                                 5
     MAXIMUM DISCON. ITERS IN TWO INCREMENTS FOR TIME INCREMENT INCREASE      50
     MAXIMUM CONTACT AUGMENTATIONS FOR *SURFACE BEHAVIOR,AUGMENTED LAGRANGE   50
     CUT-BACK FACTOR AFTER DIVERGENCE                                 0.2500    
     CUT-BACK FACTOR FOR TOO SLOW CONVERGENCE                         0.5000    
     CUT-BACK FACTOR AFTER TOO MANY EQUILIBRIUM ITERATIONS            0.7500    
     CUT-BACK FACTOR AFTER TOO MANY SEVERE DISCONTINUITY ITERATIONS   0.2500    
     CUT-BACK FACTOR AFTER PROBLEMS IN ELEMENT ASSEMBLY               0.2500    
     INCREASE FACTOR AFTER TWO INCREMENTS THAT CONVERGE QUICKLY        1.500    
     MAX. TIME INCREMENT INCREASE FACTOR ALLOWED                       1.500    
     MAX. TIME INCREMENT INCREASE FACTOR ALLOWED (DYNAMICS)            1.250    
     MAX. TIME INCREMENT INCREASE FACTOR ALLOWED (DIFFUSION)           2.000    
     MINIMUM TIME INCREMENT RATIO FOR EXTRAPOLATION TO OCCUR          0.1000    
     MAX. RATIO OF TIME INCREMENT TO STABILITY LIMIT                   1.000    
     FRACTION OF STABILITY LIMIT FOR NEW TIME INCREMENT               0.9500    
     TIME INCREMENT INCREASE FACTOR BEFORE A TIME POINT                1.000    
     GLOBAL STABILIZATION CONTROL IS NOT USED

          PRINT OF INCREMENT NUMBER, TIME, ETC., EVERY    1  INCREMENTS

     THE MAXIMUM NUMBER OF INCREMENTS IN THIS STEP IS                     200

          LARGE DISPLACEMENT THEORY WILL BE USED

     LINEAR EXTRAPOLATION WILL BE USED

     CHARACTERISTIC ELEMENT LENGTH     5.674E-02

     DETAILS REGARDING ACTUAL SOLUTION WAVEFRONT REQUESTED

     DETAILED OUTPUT OF DIAGNOSTICS TO DATABASE REQUESTED

     PRINT OF INCREMENT NUMBER, TIME, ETC., TO THE MESSAGE FILE EVERY     1  INCREMENTS

     EQUATIONS ARE BEING REORDERED TO MINIMIZE WAVEFRONT

     COLLECTING MODEL CONSTRAINT INFORMATION FOR OVERCONSTRAINT CHECKS

     COLLECTING STEP CONSTRAINT INFORMATION FOR OVERCONSTRAINT CHECKS


  INCREMENT     1 STARTS. ATTEMPT NUMBER  1, TIME INCREMENT  1.000E-02

  NUMBER OF EQUATIONS =     1256     NUMBER OF FLOATING PT. OPERATIONS =  8.20E+06

     CHECK POINT   START OF SOLVER    

     CHECK POINT  END OF SOLVER       

       ELAPSED USER TIME (SEC)      =   0.0000    
       ELAPSED SYSTEM TIME (SEC)    =   0.0000    
       ELAPSED TOTAL CPU TIME (SEC) =   0.0000    
       ELAPSED WALLCLOCK TIME (SEC) =          0

               CONVERGENCE CHECKS FOR EQUILIBRIUM ITERATION     1


 AVERAGE FORCE                       19.0       TIME AVG. FORCE        19.0    
 LARGEST RESIDUAL FORCE              108.       AT NODE        212   DOF  3
   INSTANCE: Instance A                                                                      
 LARGEST INCREMENT OF DISP.         2.984E-03   AT NODE        114   DOF  3
   INSTANCE: Instance A                                                                      
 LARGEST CORRECTION TO DISP.        2.984E-03   AT NODE        114   DOF  3
   INSTANCE: Instance A                                                                      
          FORCE     EQUILIBRIUM NOT ACHIEVED WITHIN TOLERANCE.

 AVERAGE MOMENT                     0.122       TIME AVG. MOMENT      0.122    
 LARGEST RESIDUAL MOMENT            0.311       AT NODE        173   DOF  4
   INSTANCE: Instance A                                                                      
 LARGEST INCREMENT OF ROTATION      1.205E-02   AT NODE          1   DOF  6
   INSTANCE: Instance A                                                                      
 LARGEST CORRECTION TO ROTATION     1.205E-02   AT NODE          1   DOF  6
   INSTANCE: Instance A                                                                      
          MOMENT    EQUILIBRIUM NOT ACHIEVED WITHIN TOLERANCE.

 COMPATIBILITY ERRORS:
    TYPE                NUMBER EXCEEDING TOLERANCE  MAXIMUM ERROR        IN ELEMENT
 BEAM AXIAL                          0                1.879E-06                181
   INSTANCE: Instance A                                                                      

  NUMBER OF EQUATIONS =     1256     NUMBER OF FLOATING PT. OPERATIONS =  8.20E+06

     CHECK POINT   START OF SOLVER    

     CHECK POINT  END OF SOLVER       

       ELAPSED USER TIME (SEC)      =   0.0000    
       ELAPSED SYSTEM TIME (SEC)    =   0.0000    
       ELAPSED TOTAL CPU TIME (SEC) =   0.0000    
       ELAPSED WALLCLOCK TIME (SEC) =          0

               CONVERGENCE CHECKS FOR EQUILIBRIUM ITERATION     2


 AVERAGE FORCE                       14.7       TIME AVG. FORCE        14.7    
 LARGEST RESIDUAL FORCE            -0.550       AT NODE        114   DOF  2
   INSTANCE: Instance A                                                                      
 LARGEST INCREMENT OF DISP.         2.614E-03   AT NODE        114   DOF  3
   INSTANCE: Instance A                                                                      
 LARGEST CORRECTION TO DISP.       -3.695E-04   AT NODE        114   DOF  3
   INSTANCE: Instance A                                                                      
          FORCE     EQUILIBRIUM NOT ACHIEVED WITHIN TOLERANCE.

 AVERAGE MOMENT                     0.116       TIME AVG. MOMENT      0.116    
 LARGEST RESIDUAL MOMENT           -2.550E-03   AT NODE        188   DOF  5
   INSTANCE: Instance A                                                                      
 LARGEST INCREMENT OF ROTATION      1.197E-02   AT NODE          1   DOF  6
   INSTANCE: Instance A                                                                      
 LARGEST CORRECTION TO ROTATION    -5.712E-04   AT NODE        104   DOF  4
   INSTANCE: Instance A                                                                      
          MOMENT    EQUILIBRIUM NOT ACHIEVED WITHIN TOLERANCE.

 COMPATIBILITY ERRORS:
    TYPE                NUMBER EXCEEDING TOLERANCE  MAXIMUM ERROR        IN ELEMENT
 BEAM AXIAL                          0                1.886E-08                182
   INSTANCE: Instance A                                                                      

  NUMBER OF EQUATIONS =     1256     NUMBER OF FLOATING PT. OPERATIONS =  8.20E+06

     CHECK POINT   START OF SOLVER    

     CHECK POINT  END OF SOLVER       

       ELAPSED USER TIME (SEC)      =   0.0000    
       ELAPSED SYSTEM TIME (SEC)    =   0.0000    
       ELAPSED TOTAL CPU TIME (SEC) =   0.0000    
       ELAPSED WALLCLOCK TIME (SEC) =          0

               CONVERGENCE CHECKS FOR EQUILIBRIUM ITERATION     3


 AVERAGE FORCE                       14.7       TIME AVG. FORCE        14.7    
 LARGEST RESIDUAL FORCE            -8.937E-02   AT NODE        171   DOF  2
   INSTANCE: Instance A                                                                      
 LARGEST INCREMENT OF DISP.         2.466E-03   AT NODE        114   DOF  3
   INSTANCE: Instance A                                                                      
 LARGEST CORRECTION TO DISP.       -1.482E-04   AT NODE        114   DOF  3
   INSTANCE: Instance A                                                                      
          FORCE     EQUILIBRIUM NOT ACHIEVED WITHIN TOLERANCE.

 AVERAGE MOMENT                     0.115       TIME AVG. MOMENT      0.115    
 LARGEST RESIDUAL MOMENT           -4.222E-04   AT NODE        189   DOF  5
   INSTANCE: Instance A                                                                      
 LARGEST INCREMENT OF ROTATION      1.198E-02   AT NODE          1   DOF  6
   INSTANCE: Instance A                                                                      
 LARGEST CORRECTION TO ROTATION    -2.309E-04   AT NODE        104   DOF  4
   INSTANCE: Instance A                                                                      
 ESTIMATE OF ROTATION CORRECTION   -3.824E-05
 MOMENT    EQUILIB. ACCEPTED BASED ON SMALL RESIDUAL AND ESTIMATED CORRECTION

 COMPATIBILITY ERRORS:
    TYPE                NUMBER EXCEEDING TOLERANCE  MAXIMUM ERROR        IN ELEMENT
 BEAM AXIAL                          0                3.903E-09                181
   INSTANCE: Instance A                                                                      

  NUMBER OF EQUATIONS =     1256     NUMBER OF FLOATING PT. OPERATIONS =  8.20E+06

     CHECK POINT   START OF SOLVER    

     CHECK POINT  END OF SOLVER       

       ELAPSED USER TIME (SEC)      =   0.0000    
       ELAPSED SYSTEM TIME (SEC)    =   0.0000    
       ELAPSED TOTAL CPU TIME (SEC) =   0.0000    
       ELAPSED WALLCLOCK TIME (SEC) =          0

               CONVERGENCE CHECKS FOR EQUILIBRIUM ITERATION     4


 AVERAGE FORCE                       14.7       TIME AVG. FORCE        14.7    
 LARGEST RESIDUAL FORCE            -7.321E-06   AT NODE         97   DOF  2
   INSTANCE: Instance A                                                                      
 LARGEST INCREMENT OF DISP.         2.465E-03   AT NODE        114   DOF  3
   INSTANCE: Instance A                                                                      
 LARGEST CORRECTION TO DISP.       -8.496E-07   AT NODE        114   DOF  3
   INSTANCE: Instance A                                                                      
          THE FORCE     EQUILIBRIUM EQUATIONS HAVE CONVERGED

 AVERAGE MOMENT                     0.115       TIME AVG. MOMENT      0.115    
 LARGEST RESIDUAL MOMENT            1.344E-07   AT NODE         40   DOF  6
   INSTANCE: Instance A                                                                      
 LARGEST INCREMENT OF ROTATION      1.198E-02   AT NODE          1   DOF  6
   INSTANCE: Instance A                                                                      
 LARGEST CORRECTION TO ROTATION    -1.319E-06   AT NODE        104   DOF  4
   INSTANCE: Instance A                                                                      
          THE MOMENT    EQUILIBRIUM EQUATIONS HAVE CONVERGED

 COMPATIBILITY ERRORS:
    TYPE                NUMBER EXCEEDING TOLERANCE  MAXIMUM ERROR        IN ELEMENT
 BEAM AXIAL                          0                1.258E-13                182
   INSTANCE: Instance A                                                                      

 ITERATION SUMMARY FOR THE INCREMENT:   4 TOTAL ITERATIONS, OF WHICH
   0 ARE SEVERE DISCONTINUITY ITERATIONS AND  4 ARE EQUILIBRIUM ITERATIONS.

 TIME INCREMENT COMPLETED  1.000E-02,  FRACTION OF STEP COMPLETED  1.000E-02
 STEP TIME COMPLETED       1.000E-02,  TOTAL TIME COMPLETED        1.000E-02


  INCREMENT     2 STARTS. ATTEMPT NUMBER  1, TIME INCREMENT  1.000E-02

  NUMBER OF EQUATIONS =     1256     NUMBER OF FLOATING PT. OPERATIONS =  8.20E+06

     CHECK POINT   START OF SOLVER    

     CHECK POINT  END OF SOLVER       

       ELAPSED USER TIME (SEC)      =  0.10000    
       ELAPSED SYSTEM TIME (SEC)    =   0.0000    
       ELAPSED TOTAL CPU TIME (SEC) =  0.10000    
       ELAPSED WALLCLOCK TIME (SEC) =          0

               CONVERGENCE CHECKS FOR EQUILIBRIUM ITERATION     1


 AVERAGE FORCE                       28.6       TIME AVG. FORCE        21.7    
 LARGEST RESIDUAL FORCE            -3.244E-02   AT NODE        114   DOF  2
   INSTANCE: Instance A                                                                      
 LARGEST INCREMENT OF DISP.         2.382E-03   AT NODE        114   DOF  3
   INSTANCE: Instance A                                                                      
 LARGEST CORRECTION TO DISP.       -8.379E-05   AT NODE        114   DOF  3
   INSTANCE: Instance A                                                                      
 ESTIMATE OF DISP.    CORRECTION    1.145E-08
 FORCE     EQUILIB. ACCEPTED BASED ON SMALL RESIDUAL AND ESTIMATED CORRECTION

 AVERAGE MOMENT                     0.228       TIME AVG. MOMENT      0.172    
 LARGEST RESIDUAL MOMENT            1.030E-03   AT NODE        172   DOF  6
   INSTANCE: Instance A                                                                      
 LARGEST INCREMENT OF ROTATION     -1.185E-02   AT NODE        191   DOF  6
   INSTANCE: Instance A                                                                      
 LARGEST CORRECTION TO ROTATION     2.255E-04   AT NODE          1   DOF  4
   INSTANCE: Instance A                                                                      
          MOMENT    EQUILIBRIUM NOT ACHIEVED WITHIN TOLERANCE.

 COMPATIBILITY ERRORS:
    TYPE                NUMBER EXCEEDING TOLERANCE  MAXIMUM ERROR        IN ELEMENT
 BEAM AXIAL                          0                1.232E-09                181
   INSTANCE: Instance A                                                                      

  NUMBER OF EQUATIONS =     1256     NUMBER OF FLOATING PT. OPERATIONS =  8.20E+06

     CHECK POINT   START OF SOLVER    

     CHECK POINT  END OF SOLVER       

       ELAPSED USER TIME (SEC)      =   0.0000    
       ELAPSED SYSTEM TIME (SEC)    =   0.0000    
       ELAPSED TOTAL CPU TIME (SEC) =   0.0000    
       ELAPSED WALLCLOCK TIME (SEC) =          0

               CONVERGENCE CHECKS FOR EQUILIBRIUM ITERATION     2


 AVERAGE FORCE                       28.7       TIME AVG. FORCE        21.7    
 LARGEST RESIDUAL FORCE            -1.317E-04   AT NODE        172   DOF  2
   INSTANCE: Instance A                                                                      
 LARGEST INCREMENT OF DISP.         2.385E-03   AT NODE        114   DOF  3
   INSTANCE: Instance A                                                                      
 LARGEST CORRECTION TO DISP.        3.667E-06   AT NODE        114   DOF  3
   INSTANCE: Instance A                                                                      
          THE FORCE     EQUILIBRIUM EQUATIONS HAVE CONVERGED

 AVERAGE MOMENT                     0.229       TIME AVG. MOMENT      0.172    
 LARGEST RESIDUAL MOMENT            3.300E-06   AT NODE          2   DOF  6
   INSTANCE: Instance A                                                                      
 LARGEST INCREMENT OF ROTATION     -1.184E-02   AT NODE        191   DOF  6
   INSTANCE: Instance A                                                                      
 LARGEST CORRECTION TO ROTATION     8.201E-06   AT NODE        191   DOF  4
   INSTANCE: Instance A                                                                      
          THE MOMENT    EQUILIBRIUM EQUATIONS HAVE CONVERGED

 COMPATIBILITY ERRORS:
    TYPE                NUMBER EXCEEDING TOLERANCE  MAXIMUM ERROR        IN ELEMENT
 BEAM AXIAL                          0                3.152E-12                181
   INSTANCE: Instance A                                                                      
          TIME INCREMENT MAY NOW INCREASE TO    1.500E-02

 ITERATION SUMMARY FOR THE INCREMENT:   2 TOTAL ITERATIONS, OF WHICH
   0 ARE SEVERE DISCONTINUITY ITERATIONS AND  2 ARE EQUILIBRIUM ITERATIONS.

 TIME INCREMENT COMPLETED  1.000E-02,  FRACTION OF STEP COMPLETED  2.000E-02
 STEP TIME COMPLETED       2.000E-02,  TOTAL TIME COMPLETED        2.000E-02


  INCREMENT     3 STARTS. ATTEMPT NUMBER  1, TIME INCREMENT  1.500E-02

  NUMBER OF EQUATIONS =     1256     NUMBER OF FLOATING PT. OPERATIONS =  8.20E+06

     CHECK POINT   START OF SOLVER    

     CHECK POINT  END OF SOLVER       

       ELAPSED USER TIME (SEC)      =   0.0000    
       ELAPSED SYSTEM TIME (SEC)    =   0.0000    
       ELAPSED TOTAL CPU TIME (SEC) =   0.0000    
       ELAPSED WALLCLOCK TIME (SEC) =          0

               CONVERGENCE CHECKS FOR EQUILIBRIUM ITERATION     1


 AVERAGE FORCE                       47.5       TIME AVG. FORCE        30.3    
 LARGEST RESIDUAL FORCE            -0.111       AT NODE        114   DOF  2
   INSTANCE: Instance A                                                                      
 LARGEST INCREMENT OF DISP.         3.421E-03   AT NODE        114   DOF  3
   INSTANCE: Instance A                                                                      
 LARGEST CORRECTION TO DISP.       -1.569E-04   AT NODE        114   DOF  3
   INSTANCE: Instance A                                                                      
 ESTIMATE OF DISP.    CORRECTION    4.083E-08
 FORCE     EQUILIB. ACCEPTED BASED ON SMALL RESIDUAL AND ESTIMATED CORRECTION

 AVERAGE MOMENT                     0.391       TIME AVG. MOMENT      0.245    
 LARGEST RESIDUAL MOMENT           -3.265E-03   AT NODE         20   DOF  6
   INSTANCE: Instance A                                                                      
 LARGEST INCREMENT OF ROTATION      1.732E-02   AT NODE          1   DOF  6
   INSTANCE: Instance A                                                                      
 LARGEST CORRECTION TO ROTATION     4.467E-04   AT NODE        191   DOF  6
   INSTANCE: Instance A                                                                      
          MOMENT    EQUILIBRIUM NOT ACHIEVED WITHIN TOLERANCE.

 COMPATIBILITY ERRORS:
    TYPE                NUMBER EXCEEDING TOLERANCE  MAXIMUM ERROR        IN ELEMENT
 BEAM AXIAL                          0                3.429E-09                181
   INSTANCE: Instance A                                                                      

  NUMBER OF EQUATIONS =     1256     NUMBER OF FLOATING PT. OPERATIONS =  8.20E+06

     CHECK POINT   START OF SOLVER    

     CHECK POINT  END OF SOLVER       

       ELAPSED USER TIME (SEC)      =   0.0000    
       ELAPSED SYSTEM TIME (SEC)    =   0.0000    
       ELAPSED TOTAL CPU TIME (SEC) =   0.0000    
       ELAPSED WALLCLOCK TIME (SEC) =          0

               CONVERGENCE CHECKS FOR EQUILIBRIUM ITERATION     2


 AVERAGE FORCE                       47.8       TIME AVG. FORCE        30.4    
 LARGEST RESIDUAL FORCE            -4.649E-04   AT NODE         20   DOF  2
   INSTANCE: Instance A                                                                      
 LARGEST INCREMENT OF DISP.         3.429E-03   AT NODE        114   DOF  3
   INSTANCE: Instance A                                                                      
 LARGEST CORRECTION TO DISP.        7.475E-06   AT NODE        114   DOF  3
   INSTANCE: Instance A                                                                      
          THE FORCE     EQUILIBRIUM EQUATIONS HAVE CONVERGED

 AVERAGE MOMENT                     0.394       TIME AVG. MOMENT      0.246    
 LARGEST RESIDUAL MOMENT           -1.216E-05   AT NODE        192   DOF  6
   INSTANCE: Instance A                                                                      
 LARGEST INCREMENT OF ROTATION      1.731E-02   AT NODE          1   DOF  6
   INSTANCE: Instance A                                                                      
 LARGEST CORRECTION TO ROTATION     1.911E-05   AT NODE        191   DOF  4
   INSTANCE: Instance A                                                                      
          THE MOMENT    EQUILIBRIUM EQUATIONS HAVE CONVERGED

 COMPATIBILITY ERRORS:
    TYPE                NUMBER EXCEEDING TOLERANCE  MAXIMUM ERROR        IN ELEMENT
 BEAM AXIAL                          0                1.282E-11                182
   INSTANCE: Instance A                                                                      
          TIME INCREMENT MAY NOW INCREASE TO    2.250E-02

 ITERATION SUMMARY FOR THE INCREMENT:   2 TOTAL ITERATIONS, OF WHICH
   0 ARE SEVERE DISCONTINUITY ITERATIONS AND  2 ARE EQUILIBRIUM ITERATIONS.

 TIME INCREMENT COMPLETED  1.500E-02,  FRACTION OF STEP COMPLETED  3.500E-02
 STEP TIME COMPLETED       3.500E-02,  TOTAL TIME COMPLETED        3.500E-02


  INCREMENT     4 STARTS. ATTEMPT NUMBER  1, TIME INCREMENT  2.250E-02

  NUMBER OF EQUATIONS =     1256     NUMBER OF FLOATING PT. OPERATIONS =  8.20E+06

     CHECK POINT   START OF SOLVER    

     CHECK POINT  END OF SOLVER       

       ELAPSED USER TIME (SEC)      =   0.0000    
       ELAPSED SYSTEM TIME (SEC)    =   0.0000    
       ELAPSED TOTAL CPU TIME (SEC) =   0.0000    
       ELAPSED WALLCLOCK TIME (SEC) =          0

               CONVERGENCE CHECKS FOR EQUILIBRIUM ITERATION     1


 AVERAGE FORCE                       73.2       TIME AVG. FORCE        41.1    
 LARGEST RESIDUAL FORCE             0.455       AT NODE        172   DOF  3
   INSTANCE: Instance A                                                                      
 LARGEST INCREMENT OF DISP.         4.835E-03   AT NODE        114   DOF  3
   INSTANCE: Instance A                                                                      
 LARGEST CORRECTION TO DISP.       -3.076E-04   AT NODE        114   DOF  3
   INSTANCE: Instance A                                                                      
          FORCE     EQUILIBRIUM NOT ACHIEVED WITHIN TOLERANCE.

 AVERAGE MOMENT                     0.625       TIME AVG. MOMENT      0.341    
 LARGEST RESIDUAL MOMENT            1.314E-02   AT NODE        172   DOF  6
   INSTANCE: Instance A                                                                      
 LARGEST INCREMENT OF ROTATION      2.503E-02   AT NODE          1   DOF  6
   INSTANCE: Instance A                                                                      
 LARGEST CORRECTION TO ROTATION    -9.299E-04   AT NODE          1   DOF  6
   INSTANCE: Instance A                                                                      
          MOMENT    EQUILIBRIUM NOT ACHIEVED WITHIN TOLERANCE.

 COMPATIBILITY ERRORS:
    TYPE                NUMBER EXCEEDING TOLERANCE  MAXIMUM ERROR        IN ELEMENT
 BEAM AXIAL                          0                1.715E-08                181
   INSTANCE: Instance A                                                                      

  NUMBER OF EQUATIONS =     1256     NUMBER OF FLOATING PT. OPERATIONS =  8.20E+06

     CHECK POINT   START OF SOLVER    

     CHECK POINT  END OF SOLVER       

       ELAPSED USER TIME (SEC)      =   0.0000    
       ELAPSED SYSTEM TIME (SEC)    =   0.0000    
       ELAPSED TOTAL CPU TIME (SEC) =   0.0000    
       ELAPSED WALLCLOCK TIME (SEC) =          1

               CONVERGENCE CHECKS FOR EQUILIBRIUM ITERATION     2


 AVERAGE FORCE                       73.6       TIME AVG. FORCE        41.2    
 LARGEST RESIDUAL FORCE            -2.778E-03   AT NODE        114   DOF  2
   INSTANCE: Instance A                                                                      
 LARGEST INCREMENT OF DISP.         4.861E-03   AT NODE        114   DOF  3
   INSTANCE: Instance A                                                                      
 LARGEST CORRECTION TO DISP.        2.621E-05   AT NODE        114   DOF  3
   INSTANCE: Instance A                                                                      
          THE FORCE     EQUILIBRIUM EQUATIONS HAVE CONVERGED

 AVERAGE MOMENT                     0.629       TIME AVG. MOMENT      0.342    
 LARGEST RESIDUAL MOMENT           -5.391E-05   AT NODE        192   DOF  6
   INSTANCE: Instance A                                                                      
 LARGEST INCREMENT OF ROTATION      2.500E-02   AT NODE          1   DOF  6
   INSTANCE: Instance A                                                                      
 LARGEST CORRECTION TO ROTATION     6.302E-05   AT NODE        191   DOF  4
   INSTANCE: Instance A                                                                      
          THE MOMENT    EQUILIBRIUM EQUATIONS HAVE CONVERGED

 COMPATIBILITY ERRORS:
    TYPE                NUMBER EXCEEDING TOLERANCE  MAXIMUM ERROR        IN ELEMENT
 BEAM AXIAL                          0                1.483E-10                182
   INSTANCE: Instance A                                                                      
          TIME INCREMENT MAY NOW INCREASE TO    3.375E-02

 ITERATION SUMMARY FOR THE INCREMENT:   2 TOTAL ITERATIONS, OF WHICH
   0 ARE SEVERE DISCONTINUITY ITERATIONS AND  2 ARE EQUILIBRIUM ITERATIONS.

 TIME INCREMENT COMPLETED  2.250E-02,  FRACTION OF STEP COMPLETED  5.750E-02
 STEP TIME COMPLETED       5.750E-02,  TOTAL TIME COMPLETED        5.750E-02


  INCREMENT     5 STARTS. ATTEMPT NUMBER  1, TIME INCREMENT  3.375E-02

  NUMBER OF EQUATIONS =     1256     NUMBER OF FLOATING PT. OPERATIONS =  8.20E+06

     CHECK POINT   START OF SOLVER    

     CHECK POINT  END OF SOLVER       

       ELAPSED USER TIME (SEC)      =   0.0000    
       ELAPSED SYSTEM TIME (SEC)    =   0.0000    
       ELAPSED TOTAL CPU TIME (SEC) =   0.0000    
       ELAPSED WALLCLOCK TIME (SEC) =          0

               CONVERGENCE CHECKS FOR EQUILIBRIUM ITERATION     1


 AVERAGE FORCE                       107.       TIME AVG. FORCE        54.3    
 LARGEST RESIDUAL FORCE              2.08       AT NODE         20   DOF  3
   INSTANCE: Instance A                                                                      
 LARGEST INCREMENT OF DISP.         6.713E-03   AT NODE        114   DOF  3
   INSTANCE: Instance A                                                                      
 LARGEST CORRECTION TO DISP.       -5.789E-04   AT NODE        114   DOF  3
   INSTANCE: Instance A                                                                      
          FORCE     EQUILIBRIUM NOT ACHIEVED WITHIN TOLERANCE.

 AVERAGE MOMENT                     0.955       TIME AVG. MOMENT      0.464    
 LARGEST RESIDUAL MOMENT           -5.162E-02   AT NODE         20   DOF  6
   INSTANCE: Instance A                                                                      
 LARGEST INCREMENT OF ROTATION     -3.557E-02   AT NODE        191   DOF  6
   INSTANCE: Instance A                                                                      
 LARGEST CORRECTION TO ROTATION    -1.930E-03   AT NODE          1   DOF  6
   INSTANCE: Instance A                                                                      
          MOMENT    EQUILIBRIUM NOT ACHIEVED WITHIN TOLERANCE.

 COMPATIBILITY ERRORS:
    TYPE                NUMBER EXCEEDING TOLERANCE  MAXIMUM ERROR        IN ELEMENT
 BEAM AXIAL                          0                7.759E-08                182
   INSTANCE: Instance A                                                                      

  NUMBER OF EQUATIONS =     1256     NUMBER OF FLOATING PT. OPERATIONS =  8.20E+06

     CHECK POINT   START OF SOLVER    

     CHECK POINT  END OF SOLVER       

       ELAPSED USER TIME (SEC)      =   0.0000    
       ELAPSED SYSTEM TIME (SEC)    =   0.0000    
       ELAPSED TOTAL CPU TIME (SEC) =   0.0000    
       ELAPSED WALLCLOCK TIME (SEC) =          0

               CONVERGENCE CHECKS FOR EQUILIBRIUM ITERATION     2


 AVERAGE FORCE                       107.       TIME AVG. FORCE        54.4    
 LARGEST RESIDUAL FORCE            -2.856E-02   AT NODE        114   DOF  2
   INSTANCE: Instance A                                                                      
 LARGEST INCREMENT OF DISP.         6.797E-03   AT NODE        114   DOF  3
   INSTANCE: Instance A                                                                      
 LARGEST CORRECTION TO DISP.        8.406E-05   AT NODE        114   DOF  3
   INSTANCE: Instance A                                                                      
 ESTIMATE OF DISP.    CORRECTION   -1.157E-06
 FORCE     EQUILIB. ACCEPTED BASED ON SMALL RESIDUAL AND ESTIMATED CORRECTION

 AVERAGE MOMENT                     0.959       TIME AVG. MOMENT      0.465    
 LARGEST RESIDUAL MOMENT           -2.354E-04   AT NODE        173   DOF  6
   INSTANCE: Instance A                                                                      
 LARGEST INCREMENT OF ROTATION     -3.547E-02   AT NODE        191   DOF  6
   INSTANCE: Instance A                                                                      
 LARGEST CORRECTION TO ROTATION     1.929E-04   AT NODE          1   DOF  4
   INSTANCE: Instance A                                                                      
          THE MOMENT    EQUILIBRIUM EQUATIONS HAVE CONVERGED

 COMPATIBILITY ERRORS:
    TYPE                NUMBER EXCEEDING TOLERANCE  MAXIMUM ERROR        IN ELEMENT
 BEAM AXIAL                          0                1.450E-09                181
   INSTANCE: Instance A                                                                      
          TIME INCREMENT MAY NOW INCREASE TO    5.000E-02

 ITERATION SUMMARY FOR THE INCREMENT:   2 TOTAL ITERATIONS, OF WHICH
   0 ARE SEVERE DISCONTINUITY ITERATIONS AND  2 ARE EQUILIBRIUM ITERATIONS.

 TIME INCREMENT COMPLETED  3.375E-02,  FRACTION OF STEP COMPLETED  9.125E-02
 STEP TIME COMPLETED       9.125E-02,  TOTAL TIME COMPLETED        9.125E-02


  INCREMENT     6 STARTS. ATTEMPT NUMBER  1, TIME INCREMENT  5.000E-02

  NUMBER OF EQUATIONS =     1256     NUMBER OF FLOATING PT. OPERATIONS =  8.20E+06

     CHECK POINT   START OF SOLVER    

     CHECK POINT  END OF SOLVER       

       ELAPSED USER TIME (SEC)      =   0.0000    
       ELAPSED SYSTEM TIME (SEC)    =   0.0000    
       ELAPSED TOTAL CPU TIME (SEC) =   0.0000    
       ELAPSED WALLCLOCK TIME (SEC) =          0

               CONVERGENCE CHECKS FOR EQUILIBRIUM ITERATION     1


 AVERAGE FORCE                       148.       TIME AVG. FORCE        69.9    
 LARGEST RESIDUAL FORCE              7.66       AT NODE        172   DOF  3
   INSTANCE: Instance A                                                                      
 LARGEST INCREMENT OF DISP.         9.053E-03   AT NODE        114   DOF  3
   INSTANCE: Instance A                                                                      
 LARGEST CORRECTION TO DISP.       -1.017E-03   AT NODE        114   DOF  3
   INSTANCE: Instance A                                                                      
          FORCE     EQUILIBRIUM NOT ACHIEVED WITHIN TOLERANCE.

 AVERAGE MOMENT                      1.41       TIME AVG. MOMENT      0.622    
 LARGEST RESIDUAL MOMENT           -0.186       AT NODE         20   DOF  6
   INSTANCE: Instance A                                                                      
 LARGEST INCREMENT OF ROTATION      4.885E-02   AT NODE          1   DOF  6
   INSTANCE: Instance A                                                                      
 LARGEST CORRECTION TO ROTATION     3.700E-03   AT NODE        191   DOF  6
   INSTANCE: Instance A                                                                      
          MOMENT    EQUILIBRIUM NOT ACHIEVED WITHIN TOLERANCE.

 COMPATIBILITY ERRORS:
    TYPE                NUMBER EXCEEDING TOLERANCE  MAXIMUM ERROR        IN ELEMENT
 BEAM AXIAL                          0                2.963E-07                182
   INSTANCE: Instance A                                                                      

  NUMBER OF EQUATIONS =     1256     NUMBER OF FLOATING PT. OPERATIONS =  8.20E+06

     CHECK POINT   START OF SOLVER    

     CHECK POINT  END OF SOLVER       

       ELAPSED USER TIME (SEC)      =   0.0000    
       ELAPSED SYSTEM TIME (SEC)    =   0.0000    
       ELAPSED TOTAL CPU TIME (SEC) =   0.0000    
       ELAPSED WALLCLOCK TIME (SEC) =          0

               CONVERGENCE CHECKS FOR EQUILIBRIUM ITERATION     2


 AVERAGE FORCE                       148.       TIME AVG. FORCE        70.0    
 LARGEST RESIDUAL FORCE            -0.234       AT NODE        114   DOF  2
   INSTANCE: Instance A                                                                      
 LARGEST INCREMENT OF DISP.         9.294E-03   AT NODE        114   DOF  3
   INSTANCE: Instance A                                                                      
 LARGEST CORRECTION TO DISP.        2.408E-04   AT NODE        114   DOF  3
   INSTANCE: Instance A                                                                      
 ESTIMATE OF DISP.    CORRECTION   -7.360E-06
 FORCE     EQUILIB. ACCEPTED BASED ON SMALL RESIDUAL AND ESTIMATED CORRECTION

 AVERAGE MOMENT                      1.41       TIME AVG. MOMENT      0.623    
 LARGEST RESIDUAL MOMENT            1.189E-03   AT NODE         21   DOF  6
   INSTANCE: Instance A                                                                      
 LARGEST INCREMENT OF ROTATION      4.857E-02   AT NODE          1   DOF  6
   INSTANCE: Instance A                                                                      
 LARGEST CORRECTION TO ROTATION     5.325E-04   AT NODE          1   DOF  4
   INSTANCE: Instance A                                                                      
 ESTIMATE OF ROTATION CORRECTION   -3.396E-06
 MOMENT    EQUILIB. ACCEPTED BASED ON SMALL RESIDUAL AND ESTIMATED CORRECTION

 COMPATIBILITY ERRORS:
    TYPE                NUMBER EXCEEDING TOLERANCE  MAXIMUM ERROR        IN ELEMENT
 BEAM AXIAL                          0                1.142E-08                182
   INSTANCE: Instance A                                                                      

 ITERATION SUMMARY FOR THE INCREMENT:   2 TOTAL ITERATIONS, OF WHICH
   0 ARE SEVERE DISCONTINUITY ITERATIONS AND  2 ARE EQUILIBRIUM ITERATIONS.

 TIME INCREMENT COMPLETED  5.000E-02,  FRACTION OF STEP COMPLETED  0.141    
 STEP TIME COMPLETED       0.141    ,  TOTAL TIME COMPLETED        0.141    


  INCREMENT     7 STARTS. ATTEMPT NUMBER  1, TIME INCREMENT  5.000E-02

  NUMBER OF EQUATIONS =     1256     NUMBER OF FLOATING PT. OPERATIONS =  8.20E+06

     CHECK POINT   START OF SOLVER    

     CHECK POINT  END OF SOLVER       

       ELAPSED USER TIME (SEC)      =   0.0000    
       ELAPSED SYSTEM TIME (SEC)    =   0.0000    
       ELAPSED TOTAL CPU TIME (SEC) =   0.0000    
       ELAPSED WALLCLOCK TIME (SEC) =          0

               CONVERGENCE CHECKS FOR EQUILIBRIUM ITERATION     1


 AVERAGE FORCE                       182.       TIME AVG. FORCE        86.1    
 LARGEST RESIDUAL FORCE              8.67       AT NODE        172   DOF  3
   INSTANCE: Instance A                                                                      
 LARGEST INCREMENT OF DISP.         8.442E-03   AT NODE        114   DOF  3
   INSTANCE: Instance A                                                                      
 LARGEST CORRECTION TO DISP.       -8.516E-04   AT NODE        114   DOF  3
   INSTANCE: Instance A                                                                      
          FORCE     EQUILIBRIUM NOT ACHIEVED WITHIN TOLERANCE.

 AVERAGE MOMENT                      1.82       TIME AVG. MOMENT      0.795    
 LARGEST RESIDUAL MOMENT            0.208       AT NODE        172   DOF  6
   INSTANCE: Instance A                                                                      
 LARGEST INCREMENT OF ROTATION     -4.491E-02   AT NODE        191   DOF  6
   INSTANCE: Instance A                                                                      
 LARGEST CORRECTION TO ROTATION    -3.659E-03   AT NODE          1   DOF  6
   INSTANCE: Instance A                                                                      
          MOMENT    EQUILIBRIUM NOT ACHIEVED WITHIN TOLERANCE.

 COMPATIBILITY ERRORS:
    TYPE                NUMBER EXCEEDING TOLERANCE  MAXIMUM ERROR        IN ELEMENT
 BEAM AXIAL                          0                3.443E-07                182
   INSTANCE: Instance A                                                                      

  NUMBER OF EQUATIONS =     1256     NUMBER OF FLOATING PT. OPERATIONS =  8.20E+06

     CHECK POINT   START OF SOLVER    

     CHECK POINT  END OF SOLVER       

       ELAPSED USER TIME (SEC)      =   0.0000    
       ELAPSED SYSTEM TIME (SEC)    =   0.0000    
       ELAPSED TOTAL CPU TIME (SEC) =   0.0000    
       ELAPSED WALLCLOCK TIME (SEC) =          0

               CONVERGENCE CHECKS FOR EQUILIBRIUM ITERATION     2


 AVERAGE FORCE                       183.       TIME AVG. FORCE        86.2    
 LARGEST RESIDUAL FORCE            -0.294       AT NODE        114   DOF  2
   INSTANCE: Instance A                                                                      
 LARGEST INCREMENT OF DISP.         8.711E-03   AT NODE        114   DOF  3
   INSTANCE: Instance A                                                                      
 LARGEST CORRECTION TO DISP.        2.690E-04   AT NODE        114   DOF  3
   INSTANCE: Instance A                                                                      
 ESTIMATE OF DISP.    CORRECTION   -9.126E-06
 FORCE     EQUILIB. ACCEPTED BASED ON SMALL RESIDUAL AND ESTIMATED CORRECTION

 AVERAGE MOMENT                      1.83       TIME AVG. MOMENT      0.796    
 LARGEST RESIDUAL MOMENT           -1.333E-03   AT NODE        188   DOF  5
   INSTANCE: Instance A                                                                      
 LARGEST INCREMENT OF ROTATION     -4.457E-02   AT NODE        191   DOF  6
   INSTANCE: Instance A                                                                      
 LARGEST CORRECTION TO ROTATION     5.879E-04   AT NODE          1   DOF  4
   INSTANCE: Instance A                                                                      
 ESTIMATE OF ROTATION CORRECTION   -3.758E-06
 MOMENT    EQUILIB. ACCEPTED BASED ON SMALL RESIDUAL AND ESTIMATED CORRECTION

 COMPATIBILITY ERRORS:
    TYPE                NUMBER EXCEEDING TOLERANCE  MAXIMUM ERROR        IN ELEMENT
 BEAM AXIAL                          0                1.304E-08                182
   INSTANCE: Instance A                                                                      

 ITERATION SUMMARY FOR THE INCREMENT:   2 TOTAL ITERATIONS, OF WHICH
   0 ARE SEVERE DISCONTINUITY ITERATIONS AND  2 ARE EQUILIBRIUM ITERATIONS.

 TIME INCREMENT COMPLETED  5.000E-02,  FRACTION OF STEP COMPLETED  0.191    
 STEP TIME COMPLETED       0.191    ,  TOTAL TIME COMPLETED        0.191    


  INCREMENT     8 STARTS. ATTEMPT NUMBER  1, TIME INCREMENT  5.000E-02

  NUMBER OF EQUATIONS =     1256     NUMBER OF FLOATING PT. OPERATIONS =  8.20E+06

     CHECK POINT   START OF SOLVER    

     CHECK POINT  END OF SOLVER       

       ELAPSED USER TIME (SEC)      =   0.0000    
       ELAPSED SYSTEM TIME (SEC)    =   0.0000    
       ELAPSED TOTAL CPU TIME (SEC) =   0.0000    
       ELAPSED WALLCLOCK TIME (SEC) =          0

               CONVERGENCE CHECKS FOR EQUILIBRIUM ITERATION     1


 AVERAGE FORCE                       212.       TIME AVG. FORCE        102.    
 LARGEST RESIDUAL FORCE              6.44       AT NODE        172   DOF  3
   INSTANCE: Instance A                                                                      
 LARGEST INCREMENT OF DISP.         8.111E-03   AT NODE        114   DOF  3
   INSTANCE: Instance A                                                                      
 LARGEST CORRECTION TO DISP.       -5.998E-04   AT NODE        114   DOF  3
   INSTANCE: Instance A                                                                      
          FORCE     EQUILIBRIUM NOT ACHIEVED WITHIN TOLERANCE.

 AVERAGE MOMENT                      2.21       TIME AVG. MOMENT      0.973    
 LARGEST RESIDUAL MOMENT           -0.165       AT NODE         20   DOF  6
   INSTANCE: Instance A                                                                      
 LARGEST INCREMENT OF ROTATION      4.150E-02   AT NODE          1   DOF  6
   INSTANCE: Instance A                                                                      
 LARGEST CORRECTION TO ROTATION     3.073E-03   AT NODE        191   DOF  6
   INSTANCE: Instance A                                                                      
          MOMENT    EQUILIBRIUM NOT ACHIEVED WITHIN TOLERANCE.

 COMPATIBILITY ERRORS:
    TYPE                NUMBER EXCEEDING TOLERANCE  MAXIMUM ERROR        IN ELEMENT
 BEAM AXIAL                          0                2.636E-07                181
   INSTANCE: Instance A                                                                      

  NUMBER OF EQUATIONS =     1256     NUMBER OF FLOATING PT. OPERATIONS =  8.20E+06

     CHECK POINT   START OF SOLVER    

     CHECK POINT  END OF SOLVER       

       ELAPSED USER TIME (SEC)      =   0.0000    
       ELAPSED SYSTEM TIME (SEC)    =   0.0000    
       ELAPSED TOTAL CPU TIME (SEC) =   0.0000    
       ELAPSED WALLCLOCK TIME (SEC) =          0

               CONVERGENCE CHECKS FOR EQUILIBRIUM ITERATION     2


 AVERAGE FORCE                       213.       TIME AVG. FORCE        102.    
 LARGEST RESIDUAL FORCE            -0.188       AT NODE        114   DOF  2
   INSTANCE: Instance A                                                                      
 LARGEST INCREMENT OF DISP.         8.326E-03   AT NODE        114   DOF  3
   INSTANCE: Instance A                                                                      
 LARGEST CORRECTION TO DISP.        2.145E-04   AT NODE        114   DOF  3
   INSTANCE: Instance A                                                                      
 ESTIMATE OF DISP.    CORRECTION   -6.281E-06
 FORCE     EQUILIB. ACCEPTED BASED ON SMALL RESIDUAL AND ESTIMATED CORRECTION

 AVERAGE MOMENT                      2.22       TIME AVG. MOMENT      0.974    
 LARGEST RESIDUAL MOMENT            1.010E-03   AT NODE          2   DOF  5
   INSTANCE: Instance A                                                                      
 LARGEST INCREMENT OF ROTATION      4.118E-02   AT NODE          1   DOF  6
   INSTANCE: Instance A                                                                      
 LARGEST CORRECTION TO ROTATION     4.909E-04   AT NODE        191   DOF  4
   INSTANCE: Instance A                                                                      
 ESTIMATE OF ROTATION CORRECTION   -3.005E-06
 MOMENT    EQUILIB. ACCEPTED BASED ON SMALL RESIDUAL AND ESTIMATED CORRECTION

 COMPATIBILITY ERRORS:
    TYPE                NUMBER EXCEEDING TOLERANCE  MAXIMUM ERROR        IN ELEMENT
 BEAM AXIAL                          0                7.466E-09                182
   INSTANCE: Instance A                                                                      

 ITERATION SUMMARY FOR THE INCREMENT:   2 TOTAL ITERATIONS, OF WHICH
   0 ARE SEVERE DISCONTINUITY ITERATIONS AND  2 ARE EQUILIBRIUM ITERATIONS.

 TIME INCREMENT COMPLETED  5.000E-02,  FRACTION OF STEP COMPLETED  0.241    
 STEP TIME COMPLETED       0.241    ,  TOTAL TIME COMPLETED        0.241    


  INCREMENT     9 STARTS. ATTEMPT NUMBER  1, TIME INCREMENT  5.000E-02

  NUMBER OF EQUATIONS =     1256     NUMBER OF FLOATING PT. OPERATIONS =  8.20E+06

     CHECK POINT   START OF SOLVER    

     CHECK POINT  END OF SOLVER       

       ELAPSED USER TIME (SEC)      =  0.10000    
       ELAPSED SYSTEM TIME (SEC)    =   0.0000    
       ELAPSED TOTAL CPU TIME (SEC) =  0.10000    
       ELAPSED WALLCLOCK TIME (SEC) =          0

               CONVERGENCE CHECKS FOR EQUILIBRIUM ITERATION     1


 AVERAGE FORCE                       239.       TIME AVG. FORCE        117.    
 LARGEST RESIDUAL FORCE              4.84       AT NODE         20   DOF  3
   INSTANCE: Instance A                                                                      
 LARGEST INCREMENT OF DISP.         7.887E-03   AT NODE        114   DOF  3
   INSTANCE: Instance A                                                                      
 LARGEST CORRECTION TO DISP.        4.813E-04   AT NODE        191   DOF  2
   INSTANCE: Instance A                                                                      
          FORCE     EQUILIBRIUM NOT ACHIEVED WITHIN TOLERANCE.

 AVERAGE MOMENT                      2.58       TIME AVG. MOMENT       1.15    
 LARGEST RESIDUAL MOMENT           -0.134       AT NODE         20   DOF  6
   INSTANCE: Instance A                                                                      
 LARGEST INCREMENT OF ROTATION      3.862E-02   AT NODE          1   DOF  6
   INSTANCE: Instance A                                                                      
 LARGEST CORRECTION TO ROTATION     2.564E-03   AT NODE        191   DOF  6
   INSTANCE: Instance A                                                                      
          MOMENT    EQUILIBRIUM NOT ACHIEVED WITHIN TOLERANCE.

 COMPATIBILITY ERRORS:
    TYPE                NUMBER EXCEEDING TOLERANCE  MAXIMUM ERROR        IN ELEMENT
 BEAM AXIAL                          0                2.044E-07                182
   INSTANCE: Instance A                                                                      

  NUMBER OF EQUATIONS =     1256     NUMBER OF FLOATING PT. OPERATIONS =  8.20E+06

     CHECK POINT   START OF SOLVER    

     CHECK POINT  END OF SOLVER       

       ELAPSED USER TIME (SEC)      =   0.0000    
       ELAPSED SYSTEM TIME (SEC)    =   0.0000    
       ELAPSED TOTAL CPU TIME (SEC) =   0.0000    
       ELAPSED WALLCLOCK TIME (SEC) =          0

               CONVERGENCE CHECKS FOR EQUILIBRIUM ITERATION     2


 AVERAGE FORCE                       240.       TIME AVG. FORCE        117.    
 LARGEST RESIDUAL FORCE            -0.124       AT NODE        114   DOF  2
   INSTANCE: Instance A                                                                      
 LARGEST INCREMENT OF DISP.         8.060E-03   AT NODE        114   DOF  3
   INSTANCE: Instance A                                                                      
 LARGEST CORRECTION TO DISP.        1.729E-04   AT NODE        114   DOF  3
   INSTANCE: Instance A                                                                      
 ESTIMATE OF DISP.    CORRECTION   -4.413E-06
 FORCE     EQUILIB. ACCEPTED BASED ON SMALL RESIDUAL AND ESTIMATED CORRECTION

 AVERAGE MOMENT                      2.60       TIME AVG. MOMENT       1.15    
 LARGEST RESIDUAL MOMENT           -9.423E-04   AT NODE        192   DOF  5
   INSTANCE: Instance A                                                                      
 LARGEST INCREMENT OF ROTATION      3.831E-02   AT NODE          1   DOF  6
   INSTANCE: Instance A                                                                      
 LARGEST CORRECTION TO ROTATION     4.166E-04   AT NODE          1   DOF  4
   INSTANCE: Instance A                                                                      
 ESTIMATE OF ROTATION CORRECTION    2.935E-06
 MOMENT    EQUILIB. ACCEPTED BASED ON SMALL RESIDUAL AND ESTIMATED CORRECTION

 COMPATIBILITY ERRORS:
    TYPE                NUMBER EXCEEDING TOLERANCE  MAXIMUM ERROR        IN ELEMENT
 BEAM AXIAL                          0                4.388E-09                182
   INSTANCE: Instance A                                                                      

 ITERATION SUMMARY FOR THE INCREMENT:   2 TOTAL ITERATIONS, OF WHICH
   0 ARE SEVERE DISCONTINUITY ITERATIONS AND  2 ARE EQUILIBRIUM ITERATIONS.

 TIME INCREMENT COMPLETED  5.000E-02,  FRACTION OF STEP COMPLETED  0.291    
 STEP TIME COMPLETED       0.291    ,  TOTAL TIME COMPLETED        0.291    


  INCREMENT    10 STARTS. ATTEMPT NUMBER  1, TIME INCREMENT  5.000E-02

  NUMBER OF EQUATIONS =     1256     NUMBER OF FLOATING PT. OPERATIONS =  8.20E+06

     CHECK POINT   START OF SOLVER    

     CHECK POINT  END OF SOLVER       

       ELAPSED USER TIME (SEC)      =   0.0000    
       ELAPSED SYSTEM TIME (SEC)    =   0.0000    
       ELAPSED TOTAL CPU TIME (SEC) =   0.0000    
       ELAPSED WALLCLOCK TIME (SEC) =          0

               CONVERGENCE CHECKS FOR EQUILIBRIUM ITERATION     1


 AVERAGE FORCE                       264.       TIME AVG. FORCE        132.    
 LARGEST RESIDUAL FORCE              3.75       AT NODE        172   DOF  3
   INSTANCE: Instance A                                                                      
 LARGEST INCREMENT OF DISP.         7.731E-03   AT NODE        114   DOF  3
   INSTANCE: Instance A                                                                      
 LARGEST CORRECTION TO DISP.        4.131E-04   AT NODE        210   DOF  2
   INSTANCE: Instance A                                                                      
          FORCE     EQUILIBRIUM NOT ACHIEVED WITHIN TOLERANCE.

 AVERAGE MOMENT                      2.93       TIME AVG. MOMENT       1.33    
 LARGEST RESIDUAL MOMENT            0.111       AT NODE        172   DOF  6
   INSTANCE: Instance A                                                                      
 LARGEST INCREMENT OF ROTATION     -3.615E-02   AT NODE        191   DOF  6
   INSTANCE: Instance A                                                                      
 LARGEST CORRECTION TO ROTATION     2.178E-03   AT NODE          1   DOF  4
   INSTANCE: Instance A                                                                      
          MOMENT    EQUILIBRIUM NOT ACHIEVED WITHIN TOLERANCE.

 COMPATIBILITY ERRORS:
    TYPE                NUMBER EXCEEDING TOLERANCE  MAXIMUM ERROR        IN ELEMENT
 BEAM AXIAL                          0                1.628E-07                182
   INSTANCE: Instance A                                                                      

  NUMBER OF EQUATIONS =     1256     NUMBER OF FLOATING PT. OPERATIONS =  8.20E+06

     CHECK POINT   START OF SOLVER    

     CHECK POINT  END OF SOLVER       

       ELAPSED USER TIME (SEC)      =   0.0000    
       ELAPSED SYSTEM TIME (SEC)    =   0.0000    
       ELAPSED TOTAL CPU TIME (SEC) =   0.0000    
       ELAPSED WALLCLOCK TIME (SEC) =          0

               CONVERGENCE CHECKS FOR EQUILIBRIUM ITERATION     2


 AVERAGE FORCE                       264.       TIME AVG. FORCE        132.    
 LARGEST RESIDUAL FORCE            -8.513E-02   AT NODE        114   DOF  2
   INSTANCE: Instance A                                                                      
 LARGEST INCREMENT OF DISP.         7.874E-03   AT NODE        114   DOF  3
   INSTANCE: Instance A                                                                      
 LARGEST CORRECTION TO DISP.        1.429E-04   AT NODE        114   DOF  3
   INSTANCE: Instance A                                                                      
 ESTIMATE OF DISP.    CORRECTION   -3.245E-06
 FORCE     EQUILIB. ACCEPTED BASED ON SMALL RESIDUAL AND ESTIMATED CORRECTION

 AVERAGE MOMENT                      2.95       TIME AVG. MOMENT       1.33    
 LARGEST RESIDUAL MOMENT            8.957E-04   AT NODE          2   DOF  5
   INSTANCE: Instance A                                                                      
 LARGEST INCREMENT OF ROTATION     -3.586E-02   AT NODE        191   DOF  6
   INSTANCE: Instance A                                                                      
 LARGEST CORRECTION TO ROTATION     3.609E-04   AT NODE        191   DOF  4
   INSTANCE: Instance A                                                                      
 ESTIMATE OF ROTATION CORRECTION    2.907E-06
 MOMENT    EQUILIB. ACCEPTED BASED ON SMALL RESIDUAL AND ESTIMATED CORRECTION

 COMPATIBILITY ERRORS:
    TYPE                NUMBER EXCEEDING TOLERANCE  MAXIMUM ERROR        IN ELEMENT
 BEAM AXIAL                          0                2.725E-09                181
   INSTANCE: Instance A                                                                      

 ITERATION SUMMARY FOR THE INCREMENT:   2 TOTAL ITERATIONS, OF WHICH
   0 ARE SEVERE DISCONTINUITY ITERATIONS AND  2 ARE EQUILIBRIUM ITERATIONS.

 TIME INCREMENT COMPLETED  5.000E-02,  FRACTION OF STEP COMPLETED  0.341    
 STEP TIME COMPLETED       0.341    ,  TOTAL TIME COMPLETED        0.341    


  INCREMENT    11 STARTS. ATTEMPT NUMBER  1, TIME INCREMENT  5.000E-02

  NUMBER OF EQUATIONS =     1256     NUMBER OF FLOATING PT. OPERATIONS =  8.20E+06

     CHECK POINT   START OF SOLVER    

     CHECK POINT  END OF SOLVER       

       ELAPSED USER TIME (SEC)      =   0.0000    
       ELAPSED SYSTEM TIME (SEC)    =   0.0000    
       ELAPSED TOTAL CPU TIME (SEC) =   0.0000    
       ELAPSED WALLCLOCK TIME (SEC) =          0

               CONVERGENCE CHECKS FOR EQUILIBRIUM ITERATION     1


 AVERAGE FORCE                       287.       TIME AVG. FORCE        146.    
 LARGEST RESIDUAL FORCE              2.96       AT NODE         20   DOF  3
   INSTANCE: Instance A                                                                      
 LARGEST INCREMENT OF DISP.         7.620E-03   AT NODE        114   DOF  3
   INSTANCE: Instance A                                                                      
 LARGEST CORRECTION TO DISP.        3.585E-04   AT NODE          1   DOF  2
   INSTANCE: Instance A                                                                      
          FORCE     EQUILIBRIUM NOT ACHIEVED WITHIN TOLERANCE.

 AVERAGE MOMENT                      3.27       TIME AVG. MOMENT       1.51    
 LARGEST RESIDUAL MOMENT            9.531E-02   AT NODE        191   DOF  6
   INSTANCE: Instance A                                                                      
 LARGEST INCREMENT OF ROTATION     -3.402E-02   AT NODE        191   DOF  6
   INSTANCE: Instance A                                                                      
 LARGEST CORRECTION TO ROTATION     1.920E-03   AT NODE          1   DOF  4
   INSTANCE: Instance A                                                                      
          MOMENT    EQUILIBRIUM NOT ACHIEVED WITHIN TOLERANCE.

 COMPATIBILITY ERRORS:
    TYPE                NUMBER EXCEEDING TOLERANCE  MAXIMUM ERROR        IN ELEMENT
 BEAM AXIAL                          0                1.317E-07                181
   INSTANCE: Instance A                                                                      

  NUMBER OF EQUATIONS =     1256     NUMBER OF FLOATING PT. OPERATIONS =  8.20E+06

     CHECK POINT   START OF SOLVER    

     CHECK POINT  END OF SOLVER       

       ELAPSED USER TIME (SEC)      =   0.0000    
       ELAPSED SYSTEM TIME (SEC)    =   0.0000    
       ELAPSED TOTAL CPU TIME (SEC) =   0.0000    
       ELAPSED WALLCLOCK TIME (SEC) =          0

               CONVERGENCE CHECKS FOR EQUILIBRIUM ITERATION     2


 AVERAGE FORCE                       288.       TIME AVG. FORCE        146.    
 LARGEST RESIDUAL FORCE            -6.055E-02   AT NODE        114   DOF  2
   INSTANCE: Instance A                                                                      
 LARGEST INCREMENT OF DISP.         7.740E-03   AT NODE        114   DOF  3
   INSTANCE: Instance A                                                                      
 LARGEST CORRECTION TO DISP.        1.200E-04   AT NODE        114   DOF  3
   INSTANCE: Instance A                                                                      
 ESTIMATE OF DISP.    CORRECTION   -2.454E-06
 FORCE     EQUILIB. ACCEPTED BASED ON SMALL RESIDUAL AND ESTIMATED CORRECTION

 AVERAGE MOMENT                      3.29       TIME AVG. MOMENT       1.51    
 LARGEST RESIDUAL MOMENT           -8.574E-04   AT NODE        192   DOF  5
   INSTANCE: Instance A                                                                      
 LARGEST INCREMENT OF ROTATION      3.375E-02   AT NODE          1   DOF  6
   INSTANCE: Instance A                                                                      
 LARGEST CORRECTION TO ROTATION     3.169E-04   AT NODE        191   DOF  4
   INSTANCE: Instance A                                                                      
          THE MOMENT    EQUILIBRIUM EQUATIONS HAVE CONVERGED

 COMPATIBILITY ERRORS:
    TYPE                NUMBER EXCEEDING TOLERANCE  MAXIMUM ERROR        IN ELEMENT
 BEAM AXIAL                          0                1.754E-09                181
   INSTANCE: Instance A                                                                      

 ITERATION SUMMARY FOR THE INCREMENT:   2 TOTAL ITERATIONS, OF WHICH
   0 ARE SEVERE DISCONTINUITY ITERATIONS AND  2 ARE EQUILIBRIUM ITERATIONS.

 TIME INCREMENT COMPLETED  5.000E-02,  FRACTION OF STEP COMPLETED  0.391    
 STEP TIME COMPLETED       0.391    ,  TOTAL TIME COMPLETED        0.391    


  INCREMENT    12 STARTS. ATTEMPT NUMBER  1, TIME INCREMENT  5.000E-02

  NUMBER OF EQUATIONS =     1256     NUMBER OF FLOATING PT. OPERATIONS =  8.20E+06

     CHECK POINT   START OF SOLVER    

     CHECK POINT  END OF SOLVER       

       ELAPSED USER TIME (SEC)      =   0.0000    
       ELAPSED SYSTEM TIME (SEC)    =   0.0000    
       ELAPSED TOTAL CPU TIME (SEC) =   0.0000    
       ELAPSED WALLCLOCK TIME (SEC) =          0

               CONVERGENCE CHECKS FOR EQUILIBRIUM ITERATION     1


 AVERAGE FORCE                       308.       TIME AVG. FORCE        160.    
 LARGEST RESIDUAL FORCE              2.38       AT NODE         20   DOF  3
   INSTANCE: Instance A                                                                      
 LARGEST INCREMENT OF DISP.         7.537E-03   AT NODE        114   DOF  3
   INSTANCE: Instance A                                                                      
 LARGEST CORRECTION TO DISP.        3.142E-04   AT NODE        212   DOF  2
   INSTANCE: Instance A                                                                      
          FORCE     EQUILIBRIUM NOT ACHIEVED WITHIN TOLERANCE.

 AVERAGE MOMENT                      3.59       TIME AVG. MOMENT       1.69    
 LARGEST RESIDUAL MOMENT            8.451E-02   AT NODE        191   DOF  6
   INSTANCE: Instance A                                                                      
 LARGEST INCREMENT OF ROTATION      3.215E-02   AT NODE          1   DOF  6
   INSTANCE: Instance A                                                                      
 LARGEST CORRECTION TO ROTATION     1.712E-03   AT NODE        191   DOF  4
   INSTANCE: Instance A                                                                      
          MOMENT    EQUILIBRIUM NOT ACHIEVED WITHIN TOLERANCE.

 COMPATIBILITY ERRORS:
    TYPE                NUMBER EXCEEDING TOLERANCE  MAXIMUM ERROR        IN ELEMENT
 BEAM AXIAL                          0                1.082E-07                181
   INSTANCE: Instance A                                                                      

  NUMBER OF EQUATIONS =     1256     NUMBER OF FLOATING PT. OPERATIONS =  8.20E+06

     CHECK POINT   START OF SOLVER    

     CHECK POINT  END OF SOLVER       

       ELAPSED USER TIME (SEC)      =   0.0000    
       ELAPSED SYSTEM TIME (SEC)    =   0.0000    
       ELAPSED TOTAL CPU TIME (SEC) =   0.0000    
       ELAPSED WALLCLOCK TIME (SEC) =          0

               CONVERGENCE CHECKS FOR EQUILIBRIUM ITERATION     2


 AVERAGE FORCE                       309.       TIME AVG. FORCE        160.    
 LARGEST RESIDUAL FORCE            -4.436E-02   AT NODE        114   DOF  2
   INSTANCE: Instance A                                                                      
 LARGEST INCREMENT OF DISP.         7.639E-03   AT NODE        114   DOF  3
   INSTANCE: Instance A                                                                      
 LARGEST CORRECTION TO DISP.        1.023E-04   AT NODE        114   DOF  3
   INSTANCE: Instance A                                                                      
 ESTIMATE OF DISP.    CORRECTION   -1.904E-06
 FORCE     EQUILIB. ACCEPTED BASED ON SMALL RESIDUAL AND ESTIMATED CORRECTION

 AVERAGE MOMENT                      3.61       TIME AVG. MOMENT       1.69    
 LARGEST RESIDUAL MOMENT           -8.229E-04   AT NODE        192   DOF  5
   INSTANCE: Instance A                                                                      
 LARGEST INCREMENT OF ROTATION      3.189E-02   AT NODE          1   DOF  6
   INSTANCE: Instance A                                                                      
 LARGEST CORRECTION TO ROTATION     2.814E-04   AT NODE          1   DOF  4
   INSTANCE: Instance A                                                                      
          THE MOMENT    EQUILIBRIUM EQUATIONS HAVE CONVERGED

 COMPATIBILITY ERRORS:
    TYPE                NUMBER EXCEEDING TOLERANCE  MAXIMUM ERROR        IN ELEMENT
 BEAM AXIAL                          0                1.169E-09                182
   INSTANCE: Instance A                                                                      

 ITERATION SUMMARY FOR THE INCREMENT:   2 TOTAL ITERATIONS, OF WHICH
   0 ARE SEVERE DISCONTINUITY ITERATIONS AND  2 ARE EQUILIBRIUM ITERATIONS.

 TIME INCREMENT COMPLETED  5.000E-02,  FRACTION OF STEP COMPLETED  0.441    
 STEP TIME COMPLETED       0.441    ,  TOTAL TIME COMPLETED        0.441    


  INCREMENT    13 STARTS. ATTEMPT NUMBER  1, TIME INCREMENT  5.000E-02

  NUMBER OF EQUATIONS =     1256     NUMBER OF FLOATING PT. OPERATIONS =  8.20E+06

     CHECK POINT   START OF SOLVER    

     CHECK POINT  END OF SOLVER       

       ELAPSED USER TIME (SEC)      =   0.0000    
       ELAPSED SYSTEM TIME (SEC)    =   0.0000    
       ELAPSED TOTAL CPU TIME (SEC) =   0.0000    
       ELAPSED WALLCLOCK TIME (SEC) =          0

               CONVERGENCE CHECKS FOR EQUILIBRIUM ITERATION     1


 AVERAGE FORCE                       328.       TIME AVG. FORCE        173.    
 LARGEST RESIDUAL FORCE              1.95       AT NODE         20   DOF  3
   INSTANCE: Instance A                                                                      
 LARGEST INCREMENT OF DISP.         7.471E-03   AT NODE        114   DOF  3
   INSTANCE: Instance A                                                                      
 LARGEST CORRECTION TO DISP.        2.778E-04   AT NODE          1   DOF  2
   INSTANCE: Instance A                                                                      
          FORCE     EQUILIBRIUM NOT ACHIEVED WITHIN TOLERANCE.

 AVERAGE MOMENT                      3.91       TIME AVG. MOMENT       1.86    
 LARGEST RESIDUAL MOMENT            7.575E-02   AT NODE        191   DOF  6
   INSTANCE: Instance A                                                                      
 LARGEST INCREMENT OF ROTATION     -3.049E-02   AT NODE        191   DOF  6
   INSTANCE: Instance A                                                                      
 LARGEST CORRECTION TO ROTATION     1.541E-03   AT NODE        191   DOF  4
   INSTANCE: Instance A                                                                      
          MOMENT    EQUILIBRIUM NOT ACHIEVED WITHIN TOLERANCE.

 COMPATIBILITY ERRORS:
    TYPE                NUMBER EXCEEDING TOLERANCE  MAXIMUM ERROR        IN ELEMENT
 BEAM AXIAL                          0                9.006E-08                182
   INSTANCE: Instance A                                                                      

  NUMBER OF EQUATIONS =     1256     NUMBER OF FLOATING PT. OPERATIONS =  8.20E+06

     CHECK POINT   START OF SOLVER    

     CHECK POINT  END OF SOLVER       

       ELAPSED USER TIME (SEC)      =   0.0000    
       ELAPSED SYSTEM TIME (SEC)    =   0.0000    
       ELAPSED TOTAL CPU TIME (SEC) =   0.0000    
       ELAPSED WALLCLOCK TIME (SEC) =          0

               CONVERGENCE CHECKS FOR EQUILIBRIUM ITERATION     2


 AVERAGE FORCE                       330.       TIME AVG. FORCE        173.    
 LARGEST RESIDUAL FORCE             3.358E-02   AT NODE        192   DOF  1
   INSTANCE: Instance A                                                                      
 LARGEST INCREMENT OF DISP.         7.559E-03   AT NODE        114   DOF  3
   INSTANCE: Instance A                                                                      
 LARGEST CORRECTION TO DISP.        8.826E-05   AT NODE        114   DOF  3
   INSTANCE: Instance A                                                                      
 ESTIMATE OF DISP.    CORRECTION    1.518E-06
 FORCE     EQUILIB. ACCEPTED BASED ON SMALL RESIDUAL AND ESTIMATED CORRECTION

 AVERAGE MOMENT                      3.92       TIME AVG. MOMENT       1.86    
 LARGEST RESIDUAL MOMENT           -7.898E-04   AT NODE        192   DOF  5
   INSTANCE: Instance A                                                                      
 LARGEST INCREMENT OF ROTATION     -3.024E-02   AT NODE        191   DOF  6
   INSTANCE: Instance A                                                                      
 LARGEST CORRECTION TO ROTATION     2.519E-04   AT NODE          1   DOF  4
   INSTANCE: Instance A                                                                      
          THE MOMENT    EQUILIBRIUM EQUATIONS HAVE CONVERGED

 COMPATIBILITY ERRORS:
    TYPE                NUMBER EXCEEDING TOLERANCE  MAXIMUM ERROR        IN ELEMENT
 BEAM AXIAL                          0                8.033E-10                181
   INSTANCE: Instance A                                                                      

 ITERATION SUMMARY FOR THE INCREMENT:   2 TOTAL ITERATIONS, OF WHICH
   0 ARE SEVERE DISCONTINUITY ITERATIONS AND  2 ARE EQUILIBRIUM ITERATIONS.

 TIME INCREMENT COMPLETED  5.000E-02,  FRACTION OF STEP COMPLETED  0.491    
 STEP TIME COMPLETED       0.491    ,  TOTAL TIME COMPLETED        0.491    


  INCREMENT    14 STARTS. ATTEMPT NUMBER  1, TIME INCREMENT  5.000E-02

  NUMBER OF EQUATIONS =     1256     NUMBER OF FLOATING PT. OPERATIONS =  8.20E+06

     CHECK POINT   START OF SOLVER    

     CHECK POINT  END OF SOLVER       

       ELAPSED USER TIME (SEC)      =   0.0000    
       ELAPSED SYSTEM TIME (SEC)    =   0.0000    
       ELAPSED TOTAL CPU TIME (SEC) =   0.0000    
       ELAPSED WALLCLOCK TIME (SEC) =          0

               CONVERGENCE CHECKS FOR EQUILIBRIUM ITERATION     1


 AVERAGE FORCE                       348.       TIME AVG. FORCE        185.    
 LARGEST RESIDUAL FORCE              1.62       AT NODE        172   DOF  3
   INSTANCE: Instance A                                                                      
 LARGEST INCREMENT OF DISP.         7.414E-03   AT NODE        114   DOF  3
   INSTANCE: Instance A                                                                      
 LARGEST CORRECTION TO DISP.        2.473E-04   AT NODE        212   DOF  2
   INSTANCE: Instance A                                                                      
          FORCE     EQUILIBRIUM NOT ACHIEVED WITHIN TOLERANCE.

 AVERAGE MOMENT                      4.21       TIME AVG. MOMENT       2.03    
 LARGEST RESIDUAL MOMENT            6.848E-02   AT NODE        191   DOF  6
   INSTANCE: Instance A                                                                      
 LARGEST INCREMENT OF ROTATION      2.900E-02   AT NODE          1   DOF  6
   INSTANCE: Instance A                                                                      
 LARGEST CORRECTION TO ROTATION     1.400E-03   AT NODE        191   DOF  4
   INSTANCE: Instance A                                                                      
          MOMENT    EQUILIBRIUM NOT ACHIEVED WITHIN TOLERANCE.

 COMPATIBILITY ERRORS:
    TYPE                NUMBER EXCEEDING TOLERANCE  MAXIMUM ERROR        IN ELEMENT
 BEAM AXIAL                          0                7.586E-08                182
   INSTANCE: Instance A                                                                      

  NUMBER OF EQUATIONS =     1256     NUMBER OF FLOATING PT. OPERATIONS =  8.20E+06

     CHECK POINT   START OF SOLVER    

     CHECK POINT  END OF SOLVER       

       ELAPSED USER TIME (SEC)      =   0.0000    
       ELAPSED SYSTEM TIME (SEC)    =   0.0000    
       ELAPSED TOTAL CPU TIME (SEC) =   0.0000    
       ELAPSED WALLCLOCK TIME (SEC) =          0

               CONVERGENCE CHECKS FOR EQUILIBRIUM ITERATION     2


 AVERAGE FORCE                       348.       TIME AVG. FORCE        185.    
 LARGEST RESIDUAL FORCE            -3.310E-02   AT NODE          2   DOF  1
   INSTANCE: Instance A                                                                      
 LARGEST INCREMENT OF DISP.         7.491E-03   AT NODE        114   DOF  3
   INSTANCE: Instance A                                                                      
 LARGEST CORRECTION TO DISP.        7.689E-05   AT NODE        114   DOF  3
   INSTANCE: Instance A                                                                      
 ESTIMATE OF DISP.    CORRECTION   -1.567E-06
 FORCE     EQUILIB. ACCEPTED BASED ON SMALL RESIDUAL AND ESTIMATED CORRECTION

 AVERAGE MOMENT                      4.24       TIME AVG. MOMENT       2.03    
 LARGEST RESIDUAL MOMENT            7.570E-04   AT NODE          2   DOF  5
   INSTANCE: Instance A                                                                      
 LARGEST INCREMENT OF ROTATION      2.877E-02   AT NODE          1   DOF  6
   INSTANCE: Instance A                                                                      
 LARGEST CORRECTION TO ROTATION    -2.349E-04   AT NODE          1   DOF  6
   INSTANCE: Instance A                                                                      
          THE MOMENT    EQUILIBRIUM EQUATIONS HAVE CONVERGED

 COMPATIBILITY ERRORS:
    TYPE                NUMBER EXCEEDING TOLERANCE  MAXIMUM ERROR        IN ELEMENT
 BEAM AXIAL                          0                5.659E-10                182
   INSTANCE: Instance A                                                                      

 ITERATION SUMMARY FOR THE INCREMENT:   2 TOTAL ITERATIONS, OF WHICH
   0 ARE SEVERE DISCONTINUITY ITERATIONS AND  2 ARE EQUILIBRIUM ITERATIONS.

 TIME INCREMENT COMPLETED  5.000E-02,  FRACTION OF STEP COMPLETED  0.541    
 STEP TIME COMPLETED       0.541    ,  TOTAL TIME COMPLETED        0.541    


  INCREMENT    15 STARTS. ATTEMPT NUMBER  1, TIME INCREMENT  5.000E-02

  NUMBER OF EQUATIONS =     1256     NUMBER OF FLOATING PT. OPERATIONS =  8.20E+06

     CHECK POINT   START OF SOLVER    

     CHECK POINT  END OF SOLVER       

       ELAPSED USER TIME (SEC)      =   0.0000    
       ELAPSED SYSTEM TIME (SEC)    =   0.0000    
       ELAPSED TOTAL CPU TIME (SEC) =   0.0000    
       ELAPSED WALLCLOCK TIME (SEC) =          0

               CONVERGENCE CHECKS FOR EQUILIBRIUM ITERATION     1


 AVERAGE FORCE                       366.       TIME AVG. FORCE        197.    
 LARGEST RESIDUAL FORCE              1.37       AT NODE         20   DOF  3
   INSTANCE: Instance A                                                                      
 LARGEST INCREMENT OF DISP.         7.363E-03   AT NODE        114   DOF  3
   INSTANCE: Instance A                                                                      
 LARGEST CORRECTION TO DISP.        2.216E-04   AT NODE        210   DOF  2
   INSTANCE: Instance A                                                                      
          FORCE     EQUILIBRIUM NOT ACHIEVED WITHIN TOLERANCE.

 AVERAGE MOMENT                      4.51       TIME AVG. MOMENT       2.19    
 LARGEST RESIDUAL MOMENT           -6.232E-02   AT NODE          1   DOF  6
   INSTANCE: Instance A                                                                      
 LARGEST INCREMENT OF ROTATION     -2.765E-02   AT NODE        191   DOF  6
   INSTANCE: Instance A                                                                      
 LARGEST CORRECTION TO ROTATION     1.281E-03   AT NODE          1   DOF  4
   INSTANCE: Instance A                                                                      
          MOMENT    EQUILIBRIUM NOT ACHIEVED WITHIN TOLERANCE.

 COMPATIBILITY ERRORS:
    TYPE                NUMBER EXCEEDING TOLERANCE  MAXIMUM ERROR        IN ELEMENT
 BEAM AXIAL                          0                6.453E-08                182
   INSTANCE: Instance A                                                                      

  NUMBER OF EQUATIONS =     1256     NUMBER OF FLOATING PT. OPERATIONS =  8.20E+06

     CHECK POINT   START OF SOLVER    

     CHECK POINT  END OF SOLVER       

       ELAPSED USER TIME (SEC)      =   0.0000    
       ELAPSED SYSTEM TIME (SEC)    =   0.0000    
       ELAPSED TOTAL CPU TIME (SEC) =   0.0000    
       ELAPSED WALLCLOCK TIME (SEC) =          0

               CONVERGENCE CHECKS FOR EQUILIBRIUM ITERATION     2


 AVERAGE FORCE                       366.       TIME AVG. FORCE        197.    
 LARGEST RESIDUAL FORCE            -3.636E-02   AT NODE         20   DOF  3
   INSTANCE: Instance A                                                                      
 LARGEST INCREMENT OF DISP.         7.430E-03   AT NODE        114   DOF  3
   INSTANCE: Instance A                                                                      
 LARGEST CORRECTION TO DISP.        6.744E-05   AT NODE        114   DOF  3
   INSTANCE: Instance A                                                                      
          THE FORCE     EQUILIBRIUM EQUATIONS HAVE CONVERGED

 AVERAGE MOMENT                      4.53       TIME AVG. MOMENT       2.20    
 LARGEST RESIDUAL MOMENT            7.239E-04   AT NODE          2   DOF  5
   INSTANCE: Instance A                                                                      
 LARGEST INCREMENT OF ROTATION      2.743E-02   AT NODE          1   DOF  6
   INSTANCE: Instance A                                                                      
 LARGEST CORRECTION TO ROTATION     2.226E-04   AT NODE        191   DOF  6
   INSTANCE: Instance A                                                                      
          THE MOMENT    EQUILIBRIUM EQUATIONS HAVE CONVERGED

 COMPATIBILITY ERRORS:
    TYPE                NUMBER EXCEEDING TOLERANCE  MAXIMUM ERROR        IN ELEMENT
 BEAM AXIAL                          0                4.063E-10                182
   INSTANCE: Instance A                                                                      

 ITERATION SUMMARY FOR THE INCREMENT:   2 TOTAL ITERATIONS, OF WHICH
   0 ARE SEVERE DISCONTINUITY ITERATIONS AND  2 ARE EQUILIBRIUM ITERATIONS.

 TIME INCREMENT COMPLETED  5.000E-02,  FRACTION OF STEP COMPLETED  0.591    
 STEP TIME COMPLETED       0.591    ,  TOTAL TIME COMPLETED        0.591    


  INCREMENT    16 STARTS. ATTEMPT NUMBER  1, TIME INCREMENT  5.000E-02

  NUMBER OF EQUATIONS =     1256     NUMBER OF FLOATING PT. OPERATIONS =  8.20E+06

     CHECK POINT   START OF SOLVER    

     CHECK POINT  END OF SOLVER       

       ELAPSED USER TIME (SEC)      =   0.0000    
       ELAPSED SYSTEM TIME (SEC)    =   0.0000    
       ELAPSED TOTAL CPU TIME (SEC) =   0.0000    
       ELAPSED WALLCLOCK TIME (SEC) =          0

               CONVERGENCE CHECKS FOR EQUILIBRIUM ITERATION     1


 AVERAGE FORCE                       382.       TIME AVG. FORCE        209.    
 LARGEST RESIDUAL FORCE              1.17       AT NODE        172   DOF  3
   INSTANCE: Instance A                                                                      
 LARGEST INCREMENT OF DISP.         7.313E-03   AT NODE        114   DOF  3
   INSTANCE: Instance A                                                                      
 LARGEST CORRECTION TO DISP.        1.995E-04   AT NODE        210   DOF  2
   INSTANCE: Instance A                                                                      
          FORCE     EQUILIBRIUM NOT ACHIEVED WITHIN TOLERANCE.

 AVERAGE MOMENT                      4.80       TIME AVG. MOMENT       2.36    
 LARGEST RESIDUAL MOMENT            5.701E-02   AT NODE        191   DOF  6
   INSTANCE: Instance A                                                                      
 LARGEST INCREMENT OF ROTATION     -2.642E-02   AT NODE        191   DOF  6
   INSTANCE: Instance A                                                                      
 LARGEST CORRECTION TO ROTATION     1.179E-03   AT NODE        191   DOF  4
   INSTANCE: Instance A                                                                      
          MOMENT    EQUILIBRIUM NOT ACHIEVED WITHIN TOLERANCE.

 COMPATIBILITY ERRORS:
    TYPE                NUMBER EXCEEDING TOLERANCE  MAXIMUM ERROR        IN ELEMENT
[...]
 ESTIMATE OF DISP.    CORRECTION    1.760E-05
 FORCE     EQUILIB. ACCEPTED BASED ON SMALL RESIDUAL AND ESTIMATED CORRECTION

 AVERAGE MOMENT                      6.90       TIME AVG. MOMENT       5.43    
 LARGEST RESIDUAL MOMENT            2.058E-02   AT NODE        179   DOF  4
   INSTANCE: Instance A                                                                      
 LARGEST INCREMENT OF ROTATION      2.121E-02   AT NODE        197   DOF  5
   INSTANCE: Instance A                                                                      
 LARGEST CORRECTION TO ROTATION     1.397E-03   AT NODE          2   DOF  5
   INSTANCE: Instance A                                                                      
 ESTIMATE OF ROTATION CORRECTION    1.566E-05
 MOMENT    EQUILIB. ACCEPTED BASED ON SMALL RESIDUAL AND ESTIMATED CORRECTION

 COMPATIBILITY ERRORS:
    TYPE                NUMBER EXCEEDING TOLERANCE  MAXIMUM ERROR        IN ELEMENT
 BEAM AXIAL                          0                1.000E-06                182
   INSTANCE: Instance A                                                                      

 ITERATION SUMMARY FOR THE INCREMENT:   1 TOTAL ITERATIONS, OF WHICH
   0 ARE SEVERE DISCONTINUITY ITERATIONS AND  1 ARE EQUILIBRIUM ITERATIONS.

 TIME INCREMENT COMPLETED  5.000E-02,  FRACTION OF STEP COMPLETED  0.941    
 STEP TIME COMPLETED       0.941    ,  TOTAL TIME COMPLETED         15.9    


  INCREMENT    23 STARTS. ATTEMPT NUMBER  1, TIME INCREMENT  5.000E-02

  NUMBER OF EQUATIONS =     1256     NUMBER OF FLOATING PT. OPERATIONS =  8.20E+06

     CHECK POINT   START OF SOLVER    

     CHECK POINT  END OF SOLVER       

       ELAPSED USER TIME (SEC)      =   0.0000    
       ELAPSED SYSTEM TIME (SEC)    =   0.0000    
       ELAPSED TOTAL CPU TIME (SEC) =   0.0000    
       ELAPSED WALLCLOCK TIME (SEC) =          0
 

 ***WARNING: THE SYSTEM MATRIX HAS 2 NEGATIVE EIGENVALUES.
             EXPLANATIONS ARE SUGGESTED AFTER THE FIRST OCCURRENCE OF THIS MESSAGE.

               CONVERGENCE CHECKS FOR EQUILIBRIUM ITERATION     1


 AVERAGE FORCE                      3.135E+03   TIME AVG. FORCE       2.370E+03
 LARGEST RESIDUAL FORCE              159.       AT NODE         96   DOF  3
   INSTANCE: Instance A                                                                      
 LARGEST INCREMENT OF DISP.        -4.830E-03   AT NODE        209   DOF  3
   INSTANCE: Instance A                                                                      
 LARGEST CORRECTION TO DISP.        2.899E-03   AT NODE         19   DOF  1
   INSTANCE: Instance A                                                                      
          FORCE     EQUILIBRIUM NOT ACHIEVED WITHIN TOLERANCE.

 AVERAGE MOMENT                      7.08       TIME AVG. MOMENT       5.50    
 LARGEST RESIDUAL MOMENT            0.734       AT NODE        178   DOF  4
   INSTANCE: Instance A                                                                      
 LARGEST INCREMENT OF ROTATION      2.908E-02   AT NODE        197   DOF  5
   INSTANCE: Instance A                                                                      
 LARGEST CORRECTION TO ROTATION     8.234E-03   AT NODE          2   DOF  5
   INSTANCE: Instance A                                                                      
          MOMENT    EQUILIBRIUM NOT ACHIEVED WITHIN TOLERANCE.

 COMPATIBILITY ERRORS:
    TYPE                NUMBER EXCEEDING TOLERANCE  MAXIMUM ERROR        IN ELEMENT
 BEAM AXIAL                          2                4.039E-05                181
   INSTANCE: Instance A                                                                      

  NUMBER OF EQUATIONS =     1256     NUMBER OF FLOATING PT. OPERATIONS =  8.20E+06

     CHECK POINT   START OF SOLVER    

     CHECK POINT  END OF SOLVER       

       ELAPSED USER TIME (SEC)      =   0.0000    
       ELAPSED SYSTEM TIME (SEC)    =   0.0000    
       ELAPSED TOTAL CPU TIME (SEC) =   0.0000    
       ELAPSED WALLCLOCK TIME (SEC) =          0

               CONVERGENCE CHECKS FOR EQUILIBRIUM ITERATION     2


 AVERAGE FORCE                      3.130E+03   TIME AVG. FORCE       2.370E+03
 LARGEST RESIDUAL FORCE              126.       AT NODE         58   DOF  3
   INSTANCE: Instance A                                                                      
 LARGEST INCREMENT OF DISP.        -3.568E-03   AT NODE        209   DOF  3
   INSTANCE: Instance A                                                                      
 LARGEST CORRECTION TO DISP.       -2.268E-03   AT NODE          1   DOF  3
   INSTANCE: Instance A                                                                      
          FORCE     EQUILIBRIUM NOT ACHIEVED WITHIN TOLERANCE.

 AVERAGE MOMENT                      7.08       TIME AVG. MOMENT       5.50    
 LARGEST RESIDUAL MOMENT            0.553       AT NODE        178   DOF  4
   INSTANCE: Instance A                                                                      
 LARGEST INCREMENT OF ROTATION      2.165E-02   AT NODE        197   DOF  5
   INSTANCE: Instance A                                                                      
 LARGEST CORRECTION TO ROTATION    -7.499E-03   AT NODE          1   DOF  5
   INSTANCE: Instance A                                                                      
          MOMENT    EQUILIBRIUM NOT ACHIEVED WITHIN TOLERANCE.

 COMPATIBILITY ERRORS:
    TYPE                NUMBER EXCEEDING TOLERANCE  MAXIMUM ERROR        IN ELEMENT
 BEAM AXIAL                          2                3.176E-05                181
   INSTANCE: Instance A                                                                      

  NUMBER OF EQUATIONS =     1256     NUMBER OF FLOATING PT. OPERATIONS =  8.20E+06

     CHECK POINT   START OF SOLVER    

     CHECK POINT  END OF SOLVER       

       ELAPSED USER TIME (SEC)      =   0.0000    
       ELAPSED SYSTEM TIME (SEC)    =   0.0000    
       ELAPSED TOTAL CPU TIME (SEC) =   0.0000    
       ELAPSED WALLCLOCK TIME (SEC) =          0

               CONVERGENCE CHECKS FOR EQUILIBRIUM ITERATION     3


 AVERAGE FORCE                      3.123E+03   TIME AVG. FORCE       2.370E+03
 LARGEST RESIDUAL FORCE             -30.2       AT NODE        208   DOF  1
   INSTANCE: Instance A                                                                      
 LARGEST INCREMENT OF DISP.        -2.393E-03   AT NODE        209   DOF  3
   INSTANCE: Instance A                                                                      
 LARGEST CORRECTION TO DISP.       -1.510E-03   AT NODE         19   DOF  3
   INSTANCE: Instance A                                                                      
          FORCE     EQUILIBRIUM NOT ACHIEVED WITHIN TOLERANCE.

 AVERAGE MOMENT                      7.08       TIME AVG. MOMENT       5.50    
 LARGEST RESIDUAL MOMENT            0.134       AT NODE        113   DOF  4
   INSTANCE: Instance A                                                                      
 LARGEST INCREMENT OF ROTATION      2.301E-02   AT NODE          2   DOF  6
   INSTANCE: Instance A                                                                      
 LARGEST CORRECTION TO ROTATION    -4.638E-03   AT NODE        114   DOF  5
   INSTANCE: Instance A                                                                      
          MOMENT    EQUILIBRIUM NOT ACHIEVED WITHIN TOLERANCE.

 COMPATIBILITY ERRORS:
    TYPE                NUMBER EXCEEDING TOLERANCE  MAXIMUM ERROR        IN ELEMENT
 BEAM AXIAL                          0                5.857E-06                181
   INSTANCE: Instance A                                                                      

  NUMBER OF EQUATIONS =     1256     NUMBER OF FLOATING PT. OPERATIONS =  8.20E+06

     CHECK POINT   START OF SOLVER    

     CHECK POINT  END OF SOLVER       

       ELAPSED USER TIME (SEC)      =   0.0000    
       ELAPSED SYSTEM TIME (SEC)    =   0.0000    
       ELAPSED TOTAL CPU TIME (SEC) =   0.0000    
       ELAPSED WALLCLOCK TIME (SEC) =          0

               CONVERGENCE CHECKS FOR EQUILIBRIUM ITERATION     4


 AVERAGE FORCE                      3.135E+03   TIME AVG. FORCE       2.370E+03
 LARGEST RESIDUAL FORCE             -6.25       AT NODE        208   DOF  1
   INSTANCE: Instance A                                                                      
 LARGEST INCREMENT OF DISP.        -2.020E-03   AT NODE        152   DOF  3
   INSTANCE: Instance A                                                                      
 LARGEST CORRECTION TO DISP.       -6.846E-04   AT NODE         19   DOF  3
   INSTANCE: Instance A                                                                      
          DISP.    CORRECTION TOO LARGE COMPARED TO DISP.    INCREMENT

 AVERAGE MOMENT                      7.08       TIME AVG. MOMENT       5.50    
 LARGEST RESIDUAL MOMENT            2.769E-02   AT NODE        132   DOF  4
   INSTANCE: Instance A                                                                      
 LARGEST INCREMENT OF ROTATION      2.387E-02   AT NODE          2   DOF  6
   INSTANCE: Instance A                                                                      
 LARGEST CORRECTION TO ROTATION    -2.111E-03   AT NODE        114   DOF  5
   INSTANCE: Instance A                                                                      
          MOMENT    EQUILIBRIUM NOT ACHIEVED WITHIN TOLERANCE.

 COMPATIBILITY ERRORS:
    TYPE                NUMBER EXCEEDING TOLERANCE  MAXIMUM ERROR        IN ELEMENT
 BEAM AXIAL                          0                1.213E-06                181
   INSTANCE: Instance A                                                                      

  NUMBER OF EQUATIONS =     1256     NUMBER OF FLOATING PT. OPERATIONS =  8.20E+06

     CHECK POINT   START OF SOLVER    

     CHECK POINT  END OF SOLVER       

       ELAPSED USER TIME (SEC)      =   0.0000    
       ELAPSED SYSTEM TIME (SEC)    =   0.0000    
       ELAPSED TOTAL CPU TIME (SEC) =   0.0000    
       ELAPSED WALLCLOCK TIME (SEC) =          0

               CONVERGENCE CHECKS FOR EQUILIBRIUM ITERATION     5


 AVERAGE FORCE                      3.139E+03   TIME AVG. FORCE       2.371E+03
 LARGEST RESIDUAL FORCE             0.382       AT NODE         18   DOF  1
   INSTANCE: Instance A                                                                      
 LARGEST INCREMENT OF DISP.        -1.984E-03   AT NODE        133   DOF  3
   INSTANCE: Instance A                                                                      
 LARGEST CORRECTION TO DISP.       -1.836E-04   AT NODE         19   DOF  3
   INSTANCE: Instance A                                                                      
 ESTIMATE OF DISP.    CORRECTION    1.123E-05
 FORCE     EQUILIB. ACCEPTED BASED ON SMALL RESIDUAL AND ESTIMATED CORRECTION

 AVERAGE MOMENT                      7.12       TIME AVG. MOMENT       5.50    
 LARGEST RESIDUAL MOMENT            1.278E-03   AT NODE        132   DOF  4
   INSTANCE: Instance A                                                                      
 LARGEST INCREMENT OF ROTATION      2.403E-02   AT NODE          2   DOF  6
   INSTANCE: Instance A                                                                      
 LARGEST CORRECTION TO ROTATION    -5.573E-04   AT NODE        114   DOF  5
   INSTANCE: Instance A                                                                      
 ESTIMATE OF ROTATION CORRECTION   -2.572E-05
 MOMENT    EQUILIB. ACCEPTED BASED ON SMALL RESIDUAL AND ESTIMATED CORRECTION

 COMPATIBILITY ERRORS:
    TYPE                NUMBER EXCEEDING TOLERANCE  MAXIMUM ERROR        IN ELEMENT
 BEAM AXIAL                          0                3.529E-08                181
   INSTANCE: Instance A                                                                      

 ITERATION SUMMARY FOR THE INCREMENT:   5 TOTAL ITERATIONS, OF WHICH
   0 ARE SEVERE DISCONTINUITY ITERATIONS AND  5 ARE EQUILIBRIUM ITERATIONS.

 TIME INCREMENT COMPLETED  5.000E-02,  FRACTION OF STEP COMPLETED  0.991    
 STEP TIME COMPLETED       0.991    ,  TOTAL TIME COMPLETED         16.0    


  INCREMENT    24 STARTS. ATTEMPT NUMBER  1, TIME INCREMENT  8.750E-03

  NUMBER OF EQUATIONS =     1256     NUMBER OF FLOATING PT. OPERATIONS =  8.20E+06

     CHECK POINT   START OF SOLVER    

     CHECK POINT  END OF SOLVER       

       ELAPSED USER TIME (SEC)      =  0.10000    
       ELAPSED SYSTEM TIME (SEC)    =   0.0000    
       ELAPSED TOTAL CPU TIME (SEC) =  0.10000    
       ELAPSED WALLCLOCK TIME (SEC) =          0

               CONVERGENCE CHECKS FOR EQUILIBRIUM ITERATION     1


 AVERAGE FORCE                      3.155E+03   TIME AVG. FORCE       2.403E+03
 LARGEST RESIDUAL FORCE              1.20       AT NODE         20   DOF  3
   INSTANCE: Instance A                                                                      
 LARGEST INCREMENT OF DISP.        -5.769E-04   AT NODE        209   DOF  3
   INSTANCE: Instance A                                                                      
 LARGEST CORRECTION TO DISP.       -2.752E-04   AT NODE        209   DOF  3
   INSTANCE: Instance A                                                                      
          DISP.    CORRECTION TOO LARGE COMPARED TO DISP.    INCREMENT

 AVERAGE MOMENT                      7.13       TIME AVG. MOMENT       5.57    
 LARGEST RESIDUAL MOMENT            8.840E-03   AT NODE         22   DOF  4
   INSTANCE: Instance A                                                                      
 LARGEST INCREMENT OF ROTATION      6.481E-03   AT NODE          2   DOF  6
   INSTANCE: Instance A                                                                      
 LARGEST CORRECTION TO ROTATION     2.277E-03   AT NODE          2   DOF  6
   INSTANCE: Instance A                                                                      
          ROTATION CORRECTION TOO LARGE COMPARED TO ROTATION INCREMENT

 COMPATIBILITY ERRORS:
    TYPE                NUMBER EXCEEDING TOLERANCE  MAXIMUM ERROR        IN ELEMENT
 BEAM AXIAL                          0                2.519E-07                181
   INSTANCE: Instance A                                                                      

  NUMBER OF EQUATIONS =     1256     NUMBER OF FLOATING PT. OPERATIONS =  8.20E+06

     CHECK POINT   START OF SOLVER    

     CHECK POINT  END OF SOLVER       

       ELAPSED USER TIME (SEC)      =   0.0000    
       ELAPSED SYSTEM TIME (SEC)    =   0.0000    
       ELAPSED TOTAL CPU TIME (SEC) =   0.0000    
       ELAPSED WALLCLOCK TIME (SEC) =          0

               CONVERGENCE CHECKS FOR EQUILIBRIUM ITERATION     2


 AVERAGE FORCE                      3.154E+03   TIME AVG. FORCE       2.403E+03
 LARGEST RESIDUAL FORCE             0.192       AT NODE         20   DOF  3
   INSTANCE: Instance A                                                                      
 LARGEST INCREMENT OF DISP.        -4.020E-04   AT NODE        190   DOF  3
   INSTANCE: Instance A                                                                      
 LARGEST CORRECTION TO DISP.        1.759E-04   AT NODE        209   DOF  3
   INSTANCE: Instance A                                                                      
          DISP.    CORRECTION TOO LARGE COMPARED TO DISP.    INCREMENT

 AVERAGE MOMENT                      7.15       TIME AVG. MOMENT       5.57    
 LARGEST RESIDUAL MOMENT            1.410E-03   AT NODE         22   DOF  4
   INSTANCE: Instance A                                                                      
 LARGEST INCREMENT OF ROTATION      6.259E-03   AT NODE          2   DOF  6
   INSTANCE: Instance A                                                                      
 LARGEST CORRECTION TO ROTATION    -3.428E-04   AT NODE        118   DOF  5
   INSTANCE: Instance A                                                                      
 ESTIMATE OF ROTATION CORRECTION   -5.466E-05
 MOMENT    EQUILIB. ACCEPTED BASED ON SMALL RESIDUAL AND ESTIMATED CORRECTION

 COMPATIBILITY ERRORS:
    TYPE                NUMBER EXCEEDING TOLERANCE  MAXIMUM ERROR        IN ELEMENT
 BEAM AXIAL                          0                5.240E-08                181
   INSTANCE: Instance A                                                                      

  NUMBER OF EQUATIONS =     1256     NUMBER OF FLOATING PT. OPERATIONS =  8.20E+06

     CHECK POINT   START OF SOLVER    

     CHECK POINT  END OF SOLVER       

       ELAPSED USER TIME (SEC)      =   0.0000    
       ELAPSED SYSTEM TIME (SEC)    =   0.0000    
       ELAPSED TOTAL CPU TIME (SEC) =   0.0000    
       ELAPSED WALLCLOCK TIME (SEC) =          0

               CONVERGENCE CHECKS FOR EQUILIBRIUM ITERATION     3


 AVERAGE FORCE                      3.154E+03   TIME AVG. FORCE       2.403E+03
 LARGEST RESIDUAL FORCE             4.309E-04   AT NODE        210   DOF  2
   INSTANCE: Instance A                                                                      
 LARGEST INCREMENT OF DISP.        -4.001E-04   AT NODE        190   DOF  3
   INSTANCE: Instance A                                                                      
 LARGEST CORRECTION TO DISP.        1.974E-06   AT NODE        209   DOF  3
   INSTANCE: Instance A                                                                      
          THE FORCE     EQUILIBRIUM EQUATIONS HAVE CONVERGED

 AVERAGE MOMENT                      7.15       TIME AVG. MOMENT       5.57    
 LARGEST RESIDUAL MOMENT           -2.628E-05   AT NODE         21   DOF  5
   INSTANCE: Instance A                                                                      
 LARGEST INCREMENT OF ROTATION      6.257E-03   AT NODE          2   DOF  6
   INSTANCE: Instance A                                                                      
 LARGEST CORRECTION TO ROTATION     5.300E-06   AT NODE         20   DOF  4
   INSTANCE: Instance A                                                                      
          THE MOMENT    EQUILIBRIUM EQUATIONS HAVE CONVERGED

 COMPATIBILITY ERRORS:
    TYPE                NUMBER EXCEEDING TOLERANCE  MAXIMUM ERROR        IN ELEMENT
 BEAM AXIAL                          0                2.715E-12                181
   INSTANCE: Instance A                                                                      

 ITERATION SUMMARY FOR THE INCREMENT:   3 TOTAL ITERATIONS, OF WHICH
   0 ARE SEVERE DISCONTINUITY ITERATIONS AND  3 ARE EQUILIBRIUM ITERATIONS.

 TIME INCREMENT COMPLETED  8.750E-03,  FRACTION OF STEP COMPLETED   1.00    
 STEP TIME COMPLETED        1.00    ,  TOTAL TIME COMPLETED         16.0    


          THE ANALYSIS HAS BEEN COMPLETED



     ANALYSIS SUMMARY:
     TOTAL OF        384  INCREMENTS
                       0  CUTBACKS IN AUTOMATIC INCREMENTATION
                     680  ITERATIONS INCLUDING CONTACT ITERATIONS IF PRESENT
                     680  PASSES THROUGH THE EQUATION SOLVER OF WHICH 
                     680  INVOLVE MATRIX DECOMPOSITION, INCLUDING
                       0  DECOMPOSITION(S) OF THE MASS MATRIX
                       1  REORDERING OF EQUATIONS TO MINIMIZE WAVEFRONT
                       0  ADDITIONAL RESIDUAL EVALUATIONS FOR LINE SEARCHES
                       0  ADDITIONAL OPERATOR EVALUATIONS FOR LINE SEARCHES
                       8  WARNING MESSAGES DURING USER INPUT PROCESSING
                      73  WARNING MESSAGES DURING ANALYSIS
                       0  ANALYSIS WARNINGS ARE NUMERICAL PROBLEM MESSAGES
                      73  ANALYSIS WARNINGS ARE NEGATIVE EIGENVALUE MESSAGES
                       0  ERROR MESSAGES



     JOB TIME SUMMARY
       USER TIME (SEC)      =   36.200    
       SYSTEM TIME (SEC)    =   4.8000    
       TOTAL CPU TIME (SEC) =   41.000    
       WALLCLOCK TIME (SEC) =         43
